units(length='cm', time='s', quantity='mol', act_energy='kcal/mol')

ideal_gas(name='gas',
          elements="H D T C Ci O Oi N Ne Ar He Si S Cl X",
          species="""n-heptane   Ar          He          Ne
                     N2          C2H4(2)     C4H8-1(3)   C4H8-2(4)
                     C4H6(7)     C6H8(9)     C3H6(24)    H2(47)
                     C8H12(199)  S(200)      S(203)      S(267)
                     S(278)      C6H10(284)  C8H12(287)  C8H12(288)
                     C5H8h(334)  C5H8c(355)  C7H10(359)  S(367)
                     C7H12(368)  C6H10(372)  C5H8g(378)  C7H10(382)
                     S(390)      C7H12(391)  C6H10(396)  C7H10(446)
                     S(456)      S(459)      C4H8(464)   C2H6(466)
                     C9H14(483)  C7H12(512)  C9H14(914)  S(1189)
                     S(1798)     S(2127)     S(2177)     S(2205)
                     S(2563)     S(2565)     S(2610)     S(2626)
                     S(2648)     S(2716)     S(2879)     C3H8(2881)
                     S(3115)     S(3119)     S(3443)     S(3542)
                     S(3550)     S(3805)     S(3828)     S(3876)""",
          reactions='gas-*',
          transport='Mix',
          initial_state=state(temperature=300.0, pressure=OneAtm))

ideal_interface(name='surface1',
                elements="H D T C Ci O Oi N Ne Ar He Si S Cl X",
                species="""X(1)        HX(5)       C2H3X(27)   allylX(28)
                          CH3X(29)    C2H5X(30)   C4H7X(31)   C4H7X(32)
                          C4H7X(33)   C4H7X(34)   C3H5X(35)   C4H7X(36)
                          C4H7X(37)   C4H5X(56)   C4H5X(57)   C6H9X(65)
                          C6H9X(66)   C6H9X(72)   C8H11X(77)  C8H11X(78)
                          C8H11X(85)  C6H7X(94)   C6H7X(95)   C6H7X(96)
                          SX(109)     SX(132)     SX(136)     SX(137)
                          C6H7X(145)  SX(151)     C7H9X(193)  SX(217)
                          C6H9X(218)  SX(219)     SX(220)     SX(221)
                          SX(222)     SX(223)     SX(225)     SX(226)
                          SX(249)     SX(252)     SX(260)     SX(264)
                          SX(265)     SX(266)     C6H9X(297)  C3H5X(328)
                          SX(340)     C5H9X(351)  SX(356)     SX(357)
                          C5H9X(374)  SX(419)     SX(420)     C6H9X(469)
                          SX(515)     C7H9X(523)  C5H7X(539)  C7H9X(564)
                          C5H7X(565)  C7H9X(566)  C7H9X(567)  C7H9X(568)
                          C7H9X(569)  SX(591)     C5H7X(672)  SX(673)
                          SX(674)     SX(675)     SX(676)     C5H7X(762)
                          C5H7X(763)  C5H7X(764)  C5H7X(765)  SX(779)
                          SX(901)     C5H7X(935)  C5H7X(979)  SX(1358)
                          SX(1388)    SX(1448)    SX(1477)    SX(1478)
                          SX(1670)    SX(1671)    SX(1673)    SX(1745)
                          SX(1800)    SX(1801)    SX(1892)    SX(1893)
                          SX(2087)    SX(2089)    SX(2217)    SX(2218)
                          SX(2261)    SX(2362)    SX(2363)    SX(2486)
                          SX(2488)    SX(2490)    SX(2491)    SX(2714)
                          SX(2729)    SX(2730)    SX(2971)    SX(2972)
                          SX(2973)    SX(2974)    SX(2976)    SX(3294)
                          SX(3650)    SX(3651)    SX(3652)    SX(3653)
                          SX(3656)    SX(3801)    SX(3816)    SX(3836)
                          SX(3887)    SX(3888)    SX(3990)    SX(3992)
                          SX(4263)    SX(4288)    SX(4336)    SX(4360)
                          SX(4362)    SX(4478)    SX(4510)    SX(4753)
                          SX(4754)    SX(4937)    SX(5046)    SX(5049)
                          SX(5335)    SX(5506)    SX(5718)    SX(5722)
                          SX(5858)    SX(5931)    SX(5932)    SX(6124)
                          SX(6125)    SX(6126)    SX(6127)    SX(6128)
                          SX(6129)    SX(6130)    SX(6486)    SX(6492)
                          SX(6494)    SX(6501)    SX(6529)    SX(6530)
                          SX(6867)    SX(7067)    SX(7229)    SX(7442)
                          SX(7444)    SX(7445)    SX(7446)    SX(7448)
                          SX(7511)    SX(8326)    SX(8676)    SX(8677)
                          SX(9523)""",
                site_density=2.72e-09,
                phases="gas",
          reactions='surface1-*',
                initial_state=state(temperature=300.0, pressure=OneAtm))

#-------------------------------------------------------------------------------
# Element data
#-------------------------------------------------------------------------------

element(symbol=u'X', atomic_mass=195.083)
element(symbol=u'Ci', atomic_mass=13.003)
element(symbol=u'D', atomic_mass=2.014)
element(symbol=u'Oi', atomic_mass=18.0)
element(symbol=u'T', atomic_mass=3.016)
#-------------------------------------------------------------------------------
# Species data
#-------------------------------------------------------------------------------

species(name=u'n-heptane',
        atoms='H:16 C:7',
        thermo=(NASA([100.00, 1262.73],
                     [-2.91681405E-03,  7.69373649E-02, -3.48025563E-05,
                       1.86095180E-09,  2.01573617E-12, -2.57829342E+04,
                       3.00312148E+01]),
                NASA([1262.73, 5000.00],
                     [ 1.38377915E+01,  4.85945016E-02, -1.95474548E-05,
                       3.52837178E-09, -2.39064676E-13, -3.05141556E+04,
                      -4.48642836E+01])),
        transport=gas_transport(geom='nonlinear',
                                diam=6.366,
                                well_depth=402.997))

species(name=u'Ar',
        atoms='Ar:1',
        thermo=(NASA([200.00, 1000.00],
                     [ 2.50000000E+00,  0.00000000E+00,  0.00000000E+00,
                       0.00000000E+00,  0.00000000E+00, -7.45375000E+02,
                       4.37967000E+00]),
                NASA([1000.00, 6000.00],
                     [ 2.50000000E+00,  0.00000000E+00,  0.00000000E+00,
                       0.00000000E+00,  0.00000000E+00, -7.45375000E+02,
                       4.37967000E+00])),
        transport=gas_transport(geom='atom',
                                diam=3.33,
                                well_depth=136.5))

species(name=u'He',
        atoms='He:1',
        thermo=(NASA([200.00, 1000.00],
                     [ 2.50000000E+00,  0.00000000E+00,  0.00000000E+00,
                       0.00000000E+00,  0.00000000E+00, -7.45375000E+02,
                       9.28724000E-01]),
                NASA([1000.00, 6000.00],
                     [ 2.50000000E+00,  0.00000000E+00,  0.00000000E+00,
                       0.00000000E+00,  0.00000000E+00, -7.45375000E+02,
                       9.28724000E-01])),
        transport=gas_transport(geom='atom',
                                diam=2.576,
                                well_depth=10.2))

species(name=u'Ne',
        atoms='Ne:1',
        thermo=(NASA([200.00, 1000.00],
                     [ 2.50000000E+00,  0.00000000E+00,  0.00000000E+00,
                       0.00000000E+00,  0.00000000E+00, -7.45375000E+02,
                       3.35532000E+00]),
                NASA([1000.00, 6000.00],
                     [ 2.50000000E+00,  0.00000000E+00,  0.00000000E+00,
                       0.00000000E+00,  0.00000000E+00, -7.45375000E+02,
                       3.35532000E+00])),
        transport=gas_transport(geom='atom',
                                diam=3.758,
                                well_depth=148.6))

species(name=u'N2',
        atoms='N:2',
        thermo=(NASA([200.00, 1000.00],
                     [ 3.53101000E+00, -1.23661000E-04, -5.02999000E-07,
                       2.43531000E-09, -1.40881000E-12, -1.04698000E+03,
                       2.96747000E+00]),
                NASA([1000.00, 6000.00],
                     [ 2.95258000E+00,  1.39690000E-03, -4.92632000E-07,
                       7.86010000E-11, -4.60755000E-15, -9.23949000E+02,
                       5.87189000E+00])),
        transport=gas_transport(geom='linear',
                                diam=3.621,
                                well_depth=97.53,
                                polar=1.76,
                                rot_relax=4.0))

species(name=u'C2H4(2)',
        atoms='H:4 C:2',
        thermo=(NASA([100.00, 979.36],
                     [ 3.97471606E+00, -4.75844285E-03,  4.16783770E-05,
                      -4.51392516E-08,  1.54224761E-11,  4.91540746E+03,
                       3.62430844E+00]),
                NASA([979.36, 5000.00],
                     [ 3.55660610E+00,  1.10627464E-02, -4.17019079E-06,
                       7.85586770E-10, -5.70060829E-14,  4.32046489E+03,
                       2.17719479E+00])),
        transport=gas_transport(geom='nonlinear',
                                diam=3.971,
                                well_depth=280.8,
                                rot_relax=1.5))

species(name=u'C4H8-1(3)',
        atoms='H:8 C:4',
        thermo=(NASA([100.00, 1007.28],
                     [ 2.58772906E+00,  2.32777969E-02,  1.93412349E-05,
                      -3.55496333E-08,  1.36906009E-11, -1.91872926E+03,
                       1.45750618E+01]),
                NASA([1007.28, 5000.00],
                     [ 7.20517168E+00,  2.36361568E-02, -9.03150028E-06,
                       1.65392666E-09, -1.16019260E-13, -3.79733937E+03,
                      -1.24426257E+01])),
        transport=gas_transport(geom='nonlinear',
                                diam=5.176,
                                well_depth=357.002,
                                rot_relax=1.0))

species(name=u'C4H8-2(4)',
        atoms='H:8 C:4',
        thermo=(NASA([100.00, 1157.79],
                     [ 2.51998327E+00,  2.76812799E-02,  9.43783469E-07,
                      -1.25009101E-08,  4.67144666E-12, -3.34374767E+03,
                       1.30195623E+01]),
                NASA([1157.79, 5000.00],
                     [ 6.04225708E+00,  2.60072350E-02, -1.04843374E-05,
                       1.90880922E-09, -1.30600505E-13, -4.86276511E+03,
                      -7.52715109E+00])),
        transport=gas_transport(geom='nonlinear',
                                diam=5.289,
                                well_depth=359.053))

species(name=u'C4H6(7)',
        atoms='H:6 C:4',
        thermo=(NASA([100.00, 946.05],
                     [ 2.80599310E+00,  1.02584471E-02,  6.17260255E-05,
                      -9.01642687E-08,  3.59116961E-11,  1.16584972E+04,
                       1.20621434E+01]),
                NASA([946.05, 5000.00],
                     [ 1.24693720E+01,  1.00553901E-02, -2.41206872E-06,
                       4.57077303E-10, -3.93160571E-14,  8.01077795E+03,
                      -4.36374720E+01])),
        transport=gas_transport(geom='nonlinear',
                                diam=5.18,
                                well_depth=357.002,
                                rot_relax=1.0))

species(name=u'C6H8(9)',
        atoms='H:8 C:6',
        thermo=(NASA([100.00, 941.22],
                     [ 1.38427980E+00,  4.14411503E-02,  1.94287417E-05,
                      -6.16688700E-08,  2.86503633E-11,  1.76317461E+04,
                       1.93257509E+01]),
                NASA([941.22, 5000.00],
                     [ 1.69619680E+01,  1.57221707E-02, -4.10118367E-06,
                       6.95736344E-10, -5.26521484E-14,  1.29061672E+04,
                      -6.44097553E+01])),
        transport=gas_transport(geom='nonlinear',
                                diam=5.514,
                                well_depth=396.052))

species(name=u'C3H6(24)',
        atoms='H:6 C:3',
        thermo=(NASA([100.00, 983.75],
                     [ 3.31912102E+00,  8.17958674E-03,  3.34736123E-05,
                      -4.36193684E-08,  1.58213364E-11,  7.49325328E+02,
                       9.54025058E+00]),
                NASA([983.75, 5000.00],
                     [ 5.36755173E+00,  1.70743019E-02, -6.35107626E-06,
                       1.16619529E-09, -8.27620279E-14, -4.87138326E+02,
                      -4.54467529E+00])),
        transport=gas_transport(geom='nonlinear',
                                diam=4.982,
                                well_depth=266.801,
                                rot_relax=1.0))

species(name=u'H2(47)',
        atoms='H:2',
        thermo=(NASA([100.00, 1959.08],
                     [ 3.43536412E+00,  2.12710353E-04, -2.78625043E-07,
                       3.40267167E-10, -7.76031998E-14, -1.03135984E+03,
                      -3.90841732E+00]),
                NASA([1959.08, 5000.00],
                     [ 2.78816583E+00,  5.87640942E-04,  1.59010417E-07,
                      -5.52739026E-11,  4.34310984E-15, -5.96144270E+02,
                       1.12732655E-01])),
        transport=gas_transport(geom='linear',
                                diam=2.833,
                                well_depth=59.7))

species(name=u'C8H12(199)',
        atoms='H:12 C:8',
        thermo=(NASA([100.00, 966.56],
                     [-1.28183216E-01,  7.35572918E-02, -1.44333618E-05,
                      -3.89698452E-08,  2.17299794E-11,  1.04422483E+04,
                       2.89601759E+01]),
                NASA([966.56, 5000.00],
                     [ 2.02785414E+01,  2.99584765E-02, -1.01704686E-05,
                       1.81720743E-09, -1.29537878E-13,  4.58909334E+03,
                      -7.86679341E+01])),
        transport=gas_transport(geom='nonlinear',
                                diam=6.171,
                                well_depth=433.47))

species(name=u'S(200)',
        atoms='H:14 C:10',
        thermo=(NASA([100.00, 988.70],
                     [-1.28102885E+00,  9.73401935E-02, -3.96908570E-05,
                      -2.28883979E-08,  1.70599250E-11,  2.01333918E+04,
                       3.80613736E+01]),
                NASA([988.70, 5000.00],
                     [ 2.35618068E+01,  3.86218834E-02, -1.40063814E-05,
                       2.54246809E-09, -1.80004061E-13,  1.31784885E+04,
                      -9.18377566E+01])),
        transport=gas_transport(geom='nonlinear',
                                diam=6.588,
                                well_depth=467.343))

species(name=u'S(203)',
        atoms='H:16 C:12',
        thermo=(NASA([100.00, 977.34],
                     [-2.74599726E+00,  1.25928887E-01, -6.64324947E-05,
                      -1.47539612E-08,  1.77495764E-11,  2.62279978E+04,
                       4.47490324E+01]),
                NASA([977.34, 5000.00],
                     [ 3.01371331E+01,  4.17345099E-02, -1.45468655E-05,
                       2.60501155E-09, -1.84397085E-13,  1.73938944E+04,
                      -1.25450857E+02])),
        transport=gas_transport(geom='nonlinear',
                                diam=7.026,
                                well_depth=502.99))

species(name=u'S(267)',
        atoms='H:14 C:10',
        thermo=(NASA([100.00, 988.70],
                     [-1.28102885E+00,  9.73401935E-02, -3.96908570E-05,
                      -2.28883979E-08,  1.70599250E-11,  2.01333918E+04,
                       3.80613736E+01]),
                NASA([988.70, 5000.00],
                     [ 2.35618068E+01,  3.86218834E-02, -1.40063814E-05,
                       2.54246809E-09, -1.80004061E-13,  1.31784885E+04,
                      -9.18377566E+01])),
        transport=gas_transport(geom='nonlinear',
                                diam=6.588,
                                well_depth=467.343))

species(name=u'S(278)',
        atoms='H:18 C:12',
        thermo=(NASA([100.00, 1022.08],
                     [-2.83293319E+00,  1.29890428E-01, -7.48942758E-05,
                       1.23239123E-09,  9.69990641E-12,  1.29456085E+04,
                       4.71458748E+01]),
                NASA([1022.08, 5000.00],
                     [ 2.72295490E+01,  5.22755495E-02, -1.97455851E-05,
                       3.58698306E-09, -2.50569805E-13,  4.70911362E+03,
                      -1.08775109E+02])),
        transport=gas_transport(geom='nonlinear',
                                diam=7.234,
                                well_depth=502.604))

species(name=u'C6H10(284)',
        atoms='H:10 C:6',
        thermo=(NASA([100.00, 1036.89],
                     [ 1.50874221E+00,  4.27939676E-02,  1.00407781E-05,
                      -3.76644958E-08,  1.56320088E-11,  7.74480595E+03,
                       2.33493905E+01]),
                NASA([1036.89, 5000.00],
                     [ 1.16601041E+01,  3.10397815E-02, -1.26024374E-05,
                       2.38495409E-09, -1.70150727E-13,  4.16633351E+03,
                      -3.30972272E+01])),
        transport=gas_transport(geom='nonlinear',
                                diam=5.648,
                                well_depth=385.401))

species(name=u'C8H12(287)',
        atoms='H:12 C:8',
        thermo=(NASA([100.00, 1002.94],
                     [ 1.69489980E-02,  7.28189377E-02, -2.16585698E-05,
                      -2.40807783E-08,  1.44597041E-11,  1.38562447E+04,
                       3.07679077E+01]),
                NASA([1002.94, 5000.00],
                     [ 1.77276883E+01,  3.45993801E-02, -1.29781828E-05,
                       2.37500136E-09, -1.67643536E-13,  8.67334638E+03,
                      -6.28559377E+01])),
        transport=gas_transport(geom='nonlinear',
                                diam=6.098,
                                well_depth=423.433))

species(name=u'C8H12(288)',
        atoms='H:12 C:8',
        thermo=(NASA([100.00, 1005.34],
                     [ 1.86706594E-01,  6.87128585E-02, -1.27834364E-05,
                      -3.12867866E-08,  1.65065107E-11,  1.40386710E+04,
                       3.13641644E+01]),
                NASA([1005.34, 5000.00],
                     [ 1.70020327E+01,  3.54850644E-02, -1.34528637E-05,
                       2.47700296E-09, -1.75378433E-13,  8.95581482E+03,
                      -5.83136097E+01])),
        transport=gas_transport(geom='nonlinear',
                                diam=6.146,
                                well_depth=430.747))

species(name=u'C5H8h(334)',
        atoms='H:8 C:5',
        thermo=(NASA([100.00, 1945.28],
                     [ 1.54057150E+00,  4.70674891E-02, -3.00891500E-05,
                       9.08792775E-09, -1.08388618E-12,  1.04128608E+04,
                       1.86285770E+01]),
                NASA([1945.28, 5000.00],
                     [ 1.57976301E+01,  1.77513582E-02, -7.48362302E-06,
                       1.34081097E-09, -8.82587923E-14,  4.86605187E+03,
                      -5.96402586E+01])),
        transport=gas_transport(geom='nonlinear',
                                diam=5.329,
                                well_depth=367.235))

species(name=u'C5H8c(355)',
        atoms='H:8 C:5',
        thermo=(NASA([100.00, 1004.86],
                     [ 1.98273955E+00,  3.49998332E-02,  6.98515281E-06,
                      -3.05031334E-08,  1.32246652E-11,  6.96521034E+03,
                       1.60818191E+01]),
                NASA([1004.86, 5000.00],
                     [ 1.01246420E+01,  2.42323877E-02, -9.24886971E-06,
                       1.70115950E-09, -1.20059732E-13,  4.23624320E+03,
                      -2.86745770E+01])),
        transport=gas_transport(geom='nonlinear',
                                diam=5.354,
                                well_depth=369.973))

species(name=u'C7H10(359)',
        atoms='H:10 C:7',
        thermo=(NASA([100.00, 960.58],
                     [ 5.40181259E-01,  6.14551349E-02, -1.12030877E-05,
                      -3.44223146E-08,  1.91302393E-11,  1.31395193E+04,
                       2.36489181E+01]),
                NASA([960.58, 5000.00],
                     [ 1.78943603E+01,  2.43013009E-02, -8.01425042E-06,
                       1.41741320E-09, -1.01048701E-13,  8.18561381E+03,
                      -6.78088657E+01])),
        transport=gas_transport(geom='nonlinear',
                                diam=5.856,
                                well_depth=416.37))

species(name=u'S(367)',
        atoms='H:16 C:11',
        thermo=(NASA([100.00, 1025.43],
                     [-2.16582153E+00,  1.17805574E-01, -7.17378981E-05,
                       5.89821267E-09,  7.03831094E-12,  1.54668057E+04,
                       4.19949555E+01]),
                NASA([1025.43, 5000.00],
                     [ 2.48395231E+01,  4.66276958E-02, -1.75944900E-05,
                       3.18835561E-09, -2.22174708E-13,  8.13215556E+03,
                      -9.77267784E+01])),
        transport=gas_transport(geom='nonlinear',
                                diam=6.924,
                                well_depth=486.373))

species(name=u'C7H12(368)',
        atoms='H:12 C:7',
        thermo=(NASA([100.00, 1131.99],
                     [ 5.84283501E-01,  6.47608593E-02, -2.67633524E-05,
                      -4.34737531E-09,  4.44182478E-12,  3.09569841E+03,
                       2.80653782E+01]),
                NASA([1131.99, 5000.00],
                     [ 1.29982914E+01,  3.85892124E-02, -1.55301333E-05,
                       2.84554471E-09, -1.96328801E-13, -8.48502352E+02,
                      -3.83715994E+01])),
        transport=gas_transport(geom='nonlinear',
                                diam=5.989,
                                well_depth=405.778))

species(name=u'C6H10(372)',
        atoms='H:10 C:6',
        thermo=(NASA([100.00, 1020.63],
                     [ 9.97427413E-01,  5.59777045E-02, -2.05880600E-05,
                      -1.17182304E-08,  8.13452041E-12,  2.84333919E+03,
                       1.95659973E+01]),
                NASA([1020.63, 5000.00],
                     [ 1.33828218E+01,  2.83661253E-02, -1.07663110E-05,
                       1.95749020E-09, -1.36589418E-13, -7.74890955E+02,
                      -4.57793681E+01])),
        transport=gas_transport(geom='nonlinear',
                                diam=5.698,
                                well_depth=390.841))

species(name=u'C5H8g(378)',
        atoms='H:8 C:5',
        thermo=(NASA([100.00, 1049.25],
                     [ 2.01062155E+00,  3.15407187E-02,  2.07789480E-05,
                      -4.44088985E-08,  1.72419112E-11,  7.01383967E+03,
                       1.65768346E+01]),
                NASA([1049.25, 5000.00],
                     [ 1.14809937E+01,  2.45641673E-02, -1.08867259E-05,
                       2.16707025E-09, -1.59145781E-13,  3.42314914E+03,
                      -3.72078866E+01])),
        transport=gas_transport(geom='nonlinear',
                                diam=5.404,
                                well_depth=377.736))

species(name=u'C7H10(382)',
        atoms='H:10 C:7',
        thermo=(NASA([100.00, 964.43],
                     [ 7.07394418E-01,  5.73829080E-02, -2.46592422E-06,
                      -4.14180875E-08,  2.10721488E-11,  1.33220526E+04,
                       2.42540611E+01]),
                NASA([964.43, 5000.00],
                     [ 1.71631874E+01,  2.51951360E-02, -8.49312953E-06,
                       1.52032043E-09, -1.08853382E-13,  8.47079678E+03,
                      -6.32347231E+01])),
        transport=gas_transport(geom='nonlinear',
                                diam=5.903,
                                well_depth=423.815))

species(name=u'S(390)',
        atoms='H:16 C:11',
        thermo=(NASA([100.00, 1026.62],
                     [-1.99466960E+00,  1.13682087E-01, -6.27973008E-05,
                      -1.39937801E-09,  9.12715622E-12,  1.58252994E+04,
                       4.24302765E+01]),
                NASA([1026.62, 5000.00],
                     [ 2.41122871E+01,  4.75164438E-02, -1.80710895E-05,
                       3.29083614E-09, -2.29950914E-13,  8.59129096E+03,
                      -9.33317857E+01])),
        transport=gas_transport(geom='nonlinear',
                                diam=6.969,
                                well_depth=493.369))

species(name=u'C7H12(391)',
        atoms='H:12 C:7',
        thermo=(NASA([100.00, 1118.33],
                     [ 7.68978174E-01,  6.04854802E-02, -1.73306455E-05,
                      -1.22231984E-08,  6.75038633E-12,  3.45359644E+03,
                       2.84516256E+01]),
                NASA([1118.33, 5000.00],
                     [ 1.21603701E+01,  3.96569985E-02, -1.61063018E-05,
                       2.97092237E-09, -2.05965892E-13, -3.39677256E+02,
                      -3.33473621E+01])),
        transport=gas_transport(geom='nonlinear',
                                diam=6.037,
                                well_depth=413.195))

species(name=u'C6H10(396)',
        atoms='H:10 C:6',
        thermo=(NASA([100.00, 1057.19],
                     [ 1.32003537E+00,  4.84544999E-02, -5.79624644E-06,
                      -2.18049081E-08,  1.02541120E-11,  2.75327172E+03,
                       2.13746403E+01]),
                NASA([1057.19, 5000.00],
                     [ 1.18393426E+01,  3.09141412E-02, -1.24938257E-05,
                       2.33617137E-09, -1.64723228E-13, -7.14884612E+02,
                      -3.58433808E+01])),
        transport=gas_transport(geom='nonlinear',
                                diam=5.795,
                                well_depth=406.008))

species(name=u'C7H10(446)',
        atoms='H:10 C:7',
        thermo=(NASA([100.00, 960.58],
                     [ 5.40181259E-01,  6.14551349E-02, -1.12030877E-05,
                      -3.44223146E-08,  1.91302393E-11,  1.31395193E+04,
                       2.36489181E+01]),
                NASA([960.58, 5000.00],
                     [ 1.78943603E+01,  2.43013009E-02, -8.01425042E-06,
                       1.41741320E-09, -1.01048701E-13,  8.18561381E+03,
                      -6.78088657E+01])),
        transport=gas_transport(geom='nonlinear',
                                diam=5.856,
                                well_depth=416.37))

species(name=u'S(456)',
        atoms='H:16 C:11',
        thermo=(NASA([100.00, 1025.43],
                     [-2.16580454E+00,  1.17805373E-01, -7.17371965E-05,
                       5.89731094E-09,  7.03868955E-12,  1.56429316E+04,
                       4.18388967E+01]),
                NASA([1025.43, 5000.00],
                     [ 2.48394458E+01,  4.66278259E-02, -1.75945644E-05,
                       3.18837308E-09, -2.22176150E-13,  8.30831519E+03,
                      -9.78823400E+01])),
        transport=gas_transport(geom='nonlinear',
                                diam=6.924,
                                well_depth=486.373))

species(name=u'S(459)',
        atoms='H:16 C:11',
        thermo=(NASA([100.00, 1025.43],
                     [-2.16580454E+00,  1.17805373E-01, -7.17371965E-05,
                       5.89731094E-09,  7.03868955E-12,  1.56429316E+04,
                       4.18388967E+01]),
                NASA([1025.43, 5000.00],
                     [ 2.48394458E+01,  4.66278259E-02, -1.75945644E-05,
                       3.18837308E-09, -2.22176150E-13,  8.30831519E+03,
                      -9.78823400E+01])),
        transport=gas_transport(geom='nonlinear',
                                diam=6.924,
                                well_depth=486.373))

species(name=u'C4H8(464)',
        atoms='H:8 C:4',
        thermo=(NASA([100.00, 1061.33],
                     [ 2.52504770E+00,  2.64752782E-02,  7.08359238E-06,
                      -2.07731462E-08,  8.00430055E-12, -4.02607130E+03,
                       1.28857274E+01]),
                NASA([1061.33, 5000.00],
                     [ 6.48672669E+00,  2.49943921E-02, -9.83283171E-06,
                       1.79343299E-09, -1.24008235E-13, -5.62452310E+03,
                      -1.00316397E+01])),
        transport=gas_transport(geom='nonlinear',
                                diam=5.238,
                                well_depth=351.146))

species(name=u'C2H6(466)',
        atoms='H:6 C:2',
        thermo=(NASA([100.00, 1012.42],
                     [ 3.72239291E+00,  1.65083841E-03,  3.44175530E-05,
                      -3.76858229E-08,  1.24450657E-11, -1.15575901E+04,
                       4.68247999E+00]),
                NASA([1012.42, 5000.00],
                     [ 2.82848257E+00,  1.73040568E-02, -6.73334245E-06,
                       1.23742024E-09, -8.65676410E-14, -1.19978080E+04,
                       5.93811707E+00])),
        transport=gas_transport(geom='nonlinear',
                                diam=4.302,
                                well_depth=252.3,
                                rot_relax=1.5))

species(name=u'C9H14(483)',
        atoms='H:14 C:9',
        thermo=(NASA([100.00, 1061.03],
                     [-7.05964047E-01,  8.92477822E-02, -4.49542296E-05,
                      -2.52955648E-09,  6.58718881E-12,  9.54857271E+03,
                       3.51714585E+01]),
                NASA([1061.03, 5000.00],
                     [ 1.84449198E+01,  4.32245785E-02, -1.68932978E-05,
                       3.08901170E-09, -2.14801096E-13,  4.01132324E+03,
                      -6.52978597E+01])),
        transport=gas_transport(geom='nonlinear',
                                diam=6.483,
                                well_depth=450.312))

species(name=u'C7H12(512)',
        atoms='H:12 C:7',
        thermo=(NASA([100.00, 1021.05],
                     [ 8.05759510E-01,  5.67090568E-02,  1.07937960E-06,
                      -3.64844918E-08,  1.65091804E-11,  3.96922118E+03,
                       2.85069770E+01]),
                NASA([1021.05, 5000.00],