units(length='cm', time='s', quantity='mol', act_energy='kcal/mol')

ideal_gas(name='gas',
          elements="H D T C Ci O Oi N Ne Ar He Si S Cl X",
          species="""n-heptane   Ar          He          Ne
                     N2          C2H4(2)     C4H8-1(3)   C4H8-2(4)
                     H(6)        C6H12-1(7)  C6H12-2(8)  C6H12-3(9)
                     C6H12(10)   C6H12(11)   prod_3(16)  C2H2(37)
                     C2H3(53)    C4H6(54)    C6H8(60)    C6H8(61)
                     nC4H5(65)   C2H5(67)    C4H7(69)    H2(190)
                     C2H6(343)   C4H6(361)   C4H4(375)   C4H6(393)
                     C4H6(411)   C4H6a(435)  C6H10(439)  C4H4(500)
                     C4H4(522)   C6H8(537)   C6H6(636)   C4H2(682)
                     C6H6(726)   C6H4(774)   C6H7(1131)  C6H6(1269)
                     C4H5(1352)  C6H6(1387)  C4H6(2088)  C4H7(2508)
                     C6H6(2842)  C6H7(2846)  C6H4(3377)  C6H9(7604)
                     S(10549)    S(11420)    S(12385)    S(13234)
                     S(17085)""",
          reactions='gas-*',
          transport='Mix',
          initial_state=state(temperature=300.0, pressure=OneAtm))

ideal_interface(name='surface1',
                elements="H D T C Ci O Oi N Ne Ar He Si S Cl X",
                species="""X(1)        C2H5X(5)    HX(80)      C2H3X(137)
                          C4H7X(140)  C4H7X(141)  C4H7X(142)  C4H7X(143)
                          C4H7X(145)  C4H7X(146)  C4H5X(374)  C4H5X(436)
                          C6H9X(523)  C6H7X(538)  C4H3X(554)  C4H3X(555)
                          C4H5X(628)  C6H7X(633)  C6H7X(712)  C6H5X(727)
                          C6H5X(773)  C4H5X(897)  C4H5X(898)  SX(1034)
                          SX(1035)    SX(1036)    SX(1147)    SX(1148)
                          SX(1149)    SX(1351)    SX(1382)    SX(1383)
                          SX(1386)    SX(1605)    SX(1646)    SX(1883)
                          SX(2084)    SX(2758)    SX(2844)    SX(2971)
                          SX(4895)    SX(4968)    SX(5611)    SX(7825)
                          SX(7826)    SX(11431)   SX(15966)   SX(15967)
                          SX(17275)   SX(17276)   SX(17277)   SX(17381)
                          SX(19039)   SX(19040)   SX(19041)   SX(20648)
                          SX(20652)""",
                site_density=2.72e-09,
                phases="gas",
          reactions='surface1-*',
                initial_state=state(temperature=300.0, pressure=OneAtm))

#-------------------------------------------------------------------------------
# Element data
#-------------------------------------------------------------------------------

element(symbol=u'X', atomic_mass=195.083)
element(symbol=u'Ci', atomic_mass=13.003)
element(symbol=u'D', atomic_mass=2.014)
element(symbol=u'Oi', atomic_mass=18.0)
element(symbol=u'T', atomic_mass=3.016)
#-------------------------------------------------------------------------------
# Species data
#-------------------------------------------------------------------------------

species(name=u'n-heptane',
        atoms='H:16 C:7',
        thermo=(NASA([100.00, 1262.73],
                     [-2.91681405E-03,  7.69373649E-02, -3.48025563E-05,
                       1.86095180E-09,  2.01573617E-12, -2.57829342E+04,
                       3.00312148E+01]),
                NASA([1262.73, 5000.00],
                     [ 1.38377915E+01,  4.85945016E-02, -1.95474548E-05,
                       3.52837178E-09, -2.39064676E-13, -3.05141556E+04,
                      -4.48642836E+01])),
        transport=gas_transport(geom='nonlinear',
                                diam=6.366,
                                well_depth=402.997))

species(name=u'Ar',
        atoms='Ar:1',
        thermo=(NASA([200.00, 1000.00],
                     [ 2.50000000E+00,  0.00000000E+00,  0.00000000E+00,
                       0.00000000E+00,  0.00000000E+00, -7.45375000E+02,
                       4.37967000E+00]),
                NASA([1000.00, 6000.00],
                     [ 2.50000000E+00,  0.00000000E+00,  0.00000000E+00,
                       0.00000000E+00,  0.00000000E+00, -7.45375000E+02,
                       4.37967000E+00])),
        transport=gas_transport(geom='atom',
                                diam=3.33,
                                well_depth=136.5))

species(name=u'He',
        atoms='He:1',
        thermo=(NASA([200.00, 1000.00],
                     [ 2.50000000E+00,  0.00000000E+00,  0.00000000E+00,
                       0.00000000E+00,  0.00000000E+00, -7.45375000E+02,
                       9.28724000E-01]),
                NASA([1000.00, 6000.00],
                     [ 2.50000000E+00,  0.00000000E+00,  0.00000000E+00,
                       0.00000000E+00,  0.00000000E+00, -7.45375000E+02,
                       9.28724000E-01])),
        transport=gas_transport(geom='atom',
                                diam=2.576,
                                well_depth=10.2))

species(name=u'Ne',
        atoms='Ne:1',
        thermo=(NASA([200.00, 1000.00],
                     [ 2.50000000E+00,  0.00000000E+00,  0.00000000E+00,
                       0.00000000E+00,  0.00000000E+00, -7.45375000E+02,
                       3.35532000E+00]),
                NASA([1000.00, 6000.00],
                     [ 2.50000000E+00,  0.00000000E+00,  0.00000000E+00,
                       0.00000000E+00,  0.00000000E+00, -7.45375000E+02,
                       3.35532000E+00])),
        transport=gas_transport(geom='atom',
                                diam=3.758,
                                well_depth=148.6))

species(name=u'N2',
        atoms='N:2',
        thermo=(NASA([200.00, 1000.00],
                     [ 3.53101000E+00, -1.23661000E-04, -5.02999000E-07,
                       2.43531000E-09, -1.40881000E-12, -1.04698000E+03,
                       2.96747000E+00]),
                NASA([1000.00, 6000.00],
                     [ 2.95258000E+00,  1.39690000E-03, -4.92632000E-07,
                       7.86010000E-11, -4.60755000E-15, -9.23949000E+02,
                       5.87189000E+00])),
        transport=gas_transport(geom='linear',
                                diam=3.621,
                                well_depth=97.53,
                                polar=1.76,
                                rot_relax=4.0))

species(name=u'C2H4(2)',
        atoms='H:4 C:2',
        thermo=(NASA([100.00, 979.36],
                     [ 3.97471606E+00, -4.75844285E-03,  4.16783770E-05,
                      -4.51392516E-08,  1.54224761E-11,  4.91540746E+03,
                       3.62430844E+00]),
                NASA([979.36, 5000.00],
                     [ 3.55660610E+00,  1.10627464E-02, -4.17019079E-06,
                       7.85586770E-10, -5.70060829E-14,  4.32046489E+03,
                       2.17719479E+00])),
        transport=gas_transport(geom='nonlinear',
                                diam=3.971,
                                well_depth=280.8,
                                rot_relax=1.5))

species(name=u'C4H8-1(3)',
        atoms='H:8 C:4',
        thermo=(NASA([100.00, 1007.28],
                     [ 2.58772906E+00,  2.32777969E-02,  1.93412349E-05,
                      -3.55496333E-08,  1.36906009E-11, -1.91872926E+03,
                       1.45750618E+01]),
                NASA([1007.28, 5000.00],
                     [ 7.20517168E+00,  2.36361568E-02, -9.03150028E-06,
                       1.65392666E-09, -1.16019260E-13, -3.79733937E+03,
                      -1.24426257E+01])),
        transport=gas_transport(geom='nonlinear',
                                diam=5.176,
                                well_depth=357.002,
                                rot_relax=1.0))

species(name=u'C4H8-2(4)',
        atoms='H:8 C:4',
        thermo=(NASA([100.00, 1157.79],
                     [ 2.51998327E+00,  2.76812799E-02,  9.43783469E-07,
                      -1.25009101E-08,  4.67144666E-12, -3.34374767E+03,
                       1.30195623E+01]),
                NASA([1157.79, 5000.00],
                     [ 6.04225708E+00,  2.60072350E-02, -1.04843374E-05,
                       1.90880922E-09, -1.30600505E-13, -4.86276511E+03,
                      -7.52715109E+00])),
        transport=gas_transport(geom='nonlinear',
                                diam=5.289,
                                well_depth=359.053))

species(name=u'H(6)',
        atoms='H:1',
        thermo=(NASA([100.00, 3459.60],
                     [ 2.50000000E+00,  9.24384602E-15, -1.36779837E-17,
                       6.66184769E-21, -1.00106912E-24,  2.54742178E+04,
                      -4.44972896E-01]),
                NASA([3459.60, 5000.00],
                     [ 2.49999999E+00,  9.20455546E-12, -3.58608293E-15,
                       6.15198922E-19, -3.92041801E-23,  2.54742178E+04,
                      -4.44972842E-01])),
        transport=gas_transport(geom='atom',
                                diam=2.05,
                                well_depth=145.0))

species(name=u'C6H12-1(7)',
        atoms='H:12 C:6',
        thermo=(NASA([100.00, 2065.44],
                     [ 1.68598658E+00,  5.58664307E-02, -2.53057821E-05,
                       3.98016615E-09, -6.94904807E-14, -7.81739466E+03,
                       2.09919882E+01]),
                NASA([2065.44, 5000.00],
                     [ 2.13486140E+01,  2.79136045E-02, -1.23596487E-05,
                       2.17527434E-09, -1.38347372E-13, -1.80997789E+04,
                      -9.33598720E+01])),
        transport=gas_transport(geom='nonlinear',
                                diam=5.851,
                                well_depth=385.248))

species(name=u'C6H12-2(8)',
        atoms='H:12 C:6',
        thermo=(NASA([100.00, 1829.14],
                     [ 7.23497206E-01,  6.40962986E-02, -3.88937857E-05,
                       1.18285810E-08, -1.46479639E-12, -9.55473307E+03,
                       2.34752956E+01]),
                NASA([1829.14, 5000.00],
                     [ 1.55815550E+01,  3.16049972E-02, -1.22495396E-05,
                       2.11773097E-09, -1.37578189E-13, -1.49903266E+04,
                      -5.71784952E+01])),
        transport=gas_transport(geom='nonlinear',
                                diam=5.925,
                                well_depth=395.365))

species(name=u'C6H12-3(9)',
        atoms='H:12 C:6',
        thermo=(NASA([100.00, 1839.14],
                     [ 7.39766525E-01,  6.35836379E-02, -3.85035731E-05,
                       1.16726754E-08, -1.43915861E-12, -9.53996498E+03,
                       2.35193792E+01]),
                NASA([1839.14, 5000.00],
                     [ 1.56639911E+01,  3.11245214E-02, -1.20299805E-05,
                       2.07631491E-09, -1.34696441E-13, -1.50295162E+04,
                      -5.75746881E+01])),
        transport=gas_transport(geom='nonlinear',
                                diam=5.925,
                                well_depth=395.365))

species(name=u'C6H12(10)',
        atoms='H:12 C:6',
        thermo=(NASA([100.00, 1018.92],
                     [ 1.21827324E+00,  4.88303598E-02,  8.49335826E-06,
                      -3.91899735E-08,  1.67107196E-11, -8.55522126E+03,
                       2.43074946E+01]),
                NASA([1018.92, 5000.00],
                     [ 1.16698119E+01,  3.59250755E-02, -1.39120664E-05,
                       2.55991991E-09, -1.79822160E-13, -1.21450086E+04,
                      -3.34751762E+01])),
        transport=gas_transport(geom='nonlinear',
                                diam=5.884,
                                well_depth=388.064))

species(name=u'C6H12(11)',
        atoms='H:12 C:6',
        thermo=(NASA([100.00, 1917.57],
                     [ 2.29989638E+00,  4.93347109E-02, -1.39908418E-05,
                      -2.79410381E-09,  1.20747058E-12, -1.03230301E+04,
                       1.84311611E+01]),
                NASA([1917.57, 5000.00],
                     [ 1.85703860E+01,  3.37500613E-02, -1.61580314E-05,
                       2.95111967E-09, -1.92346931E-13, -1.99376584E+04,
                      -7.94569206E+01])),
        transport=gas_transport(geom='nonlinear',
                                diam=5.95,
                                well_depth=398.057))

species(name=u'prod_3(16)',
        atoms='H:8 C:6',
        thermo=(NASA([100.00, 961.23],
                     [ 2.37188493E+00,  1.63369205E-02,  7.88460381E-05,
                      -1.11717260E-07,  4.31619974E-11,  1.26555235E+04,
                       1.70816928E+01]),
                NASA([961.23, 5000.00],
                     [ 1.27037725E+01,  2.25208931E-02, -7.54719403E-06,
                       1.42705184E-09, -1.08142015E-13,  8.39731287E+03,
                      -4.41730813E+01])),
        transport=gas_transport(geom='nonlinear',
                                diam=5.983,
                                well_depth=427.275))

species(name=u'C2H2(37)',
        atoms='H:2 C:2',
        thermo=(NASA([100.00, 962.80],
                     [ 3.11331938E+00,  6.02058533E-03,  5.33031324E-06,
                      -1.10293378E-08,  4.62859887E-12,  2.62179845E+04,
                       4.37938268E+00]),
                NASA([962.80, 5000.00],
                     [ 5.02077795E+00,  4.22470269E-03, -1.42000136E-06,
                       2.56105133E-10, -1.84544863E-14,  2.55666188E+04,
                      -6.22588857E+00])),
        transport=gas_transport(geom='linear',
                                diam=4.1,
                                well_depth=209.0,
                                rot_relax=2.5))

species(name=u'C2H3(53)',
        atoms='H:3 C:2',
        thermo=(NASA([100.00, 956.69],
                     [ 3.83146115E+00, -7.47448486E-04,  2.72388708E-05,
                      -3.26055590E-08,  1.18614714E-11,  3.44534845E+04,
                       5.55913311E+00]),
                NASA([956.69, 5000.00],
                     [ 4.81087656E+00,  6.59337838E-03, -2.20129495E-06,
                       4.04587872E-10, -2.98091068E-14,  3.37427523E+04,
                      -1.85774644E+00])),
        transport=gas_transport(geom='nonlinear',
                                diam=4.1,
                                well_depth=209.0,
                                rot_relax=1.0))

species(name=u'C4H6(54)',
        atoms='H:6 C:4',
        thermo=(NASA([100.00, 946.05],
                     [ 2.80599310E+00,  1.02584471E-02,  6.17260255E-05,
                      -9.01642687E-08,  3.59116961E-11,  1.16584972E+04,
                       1.20621434E+01]),
                NASA([946.05, 5000.00],
                     [ 1.24693720E+01,  1.00553901E-02, -2.41206872E-06,
                       4.57077303E-10, -3.93160571E-14,  8.01077795E+03,
                      -4.36374720E+01])),
        transport=gas_transport(geom='nonlinear',
                                diam=5.18,
                                well_depth=357.002,
                                rot_relax=1.0))

species(name=u'C6H8(60)',
        atoms='H:8 C:6',
        thermo=(NASA([100.00, 941.68],
                     [ 2.53545008E+00,  9.68528865E-03,  1.02570997E-04,
                      -1.40139199E-07,  5.45588043E-11,  1.09344504E+04,
                       1.57111365E+01]),
                NASA([941.68, 5000.00],
                     [ 1.36069386E+01,  2.00352521E-02, -5.31287723E-06,
                       9.42316161E-10, -7.37526135E-14,  6.30520962E+03,
                      -5.05452527E+01])),
        transport=gas_transport(geom='nonlinear',
                                diam=6.135,
                                well_depth=437.763))

species(name=u'C6H8(61)',
        atoms='H:8 C:6',
        thermo=(NASA([100.00, 966.40],
                     [ 2.47427074E+00,  1.36270567E-02,  8.58077544E-05,
                      -1.17363635E-07,  4.46268863E-11,  1.12219501E+04,
                       1.65777555E+01]),
                NASA([966.40, 5000.00],
                     [ 1.21946828E+01,  2.38389642E-02, -8.34190105E-06,
                       1.59962965E-09, -1.21148678E-13,  6.98757600E+03,
                      -4.21729826E+01])),
        transport=gas_transport(geom='nonlinear',
                                diam=6.135,
                                well_depth=437.763))

species(name=u'nC4H5(65)',
        atoms='H:5 C:4',
        thermo=(NASA([100.00, 937.72],
                     [ 2.64255500E+00,  1.63336952E-02,  3.86224985E-05,
                      -6.71376617E-08,  2.83602852E-11,  4.17296364E+04,
                       1.32820200E+01]),
                NASA([937.72, 5000.00],
                     [ 1.29704715E+01,  6.69126742E-03, -1.00070401E-06,
                       1.67601640E-10, -1.71436488E-14,  3.82796853E+04,
                      -4.39475558E+01])),
        transport=gas_transport(geom='nonlinear',
                                diam=5.18,
                                well_depth=357.002,
                                rot_relax=1.0))

species(name=u'C2H5(67)',
        atoms='H:5 C:2',
        thermo=(NASA([100.00, 1006.87],
                     [ 3.68746539E+00,  3.06889693E-03,  2.55873112E-05,
                      -2.94076576E-08,  9.94076215E-12,  1.31153648E+04,
                       6.96684864E+00]),
                NASA([1006.87, 5000.00],
                     [ 3.53781010E+00,  1.37311636E-02, -5.29564638E-06,
                       9.71482858E-10, -6.80289490E-14,  1.26351790E+04,
                       5.15566048E+00])),
        transport=gas_transport(geom='nonlinear',
                                diam=4.302,
                                well_depth=252.3,
                                rot_relax=1.5))

species(name=u'C4H7(69)',
        atoms='H:7 C:4',
        thermo=(NASA([100.00, 1051.00],
                     [ 2.48600661E+00,  2.77403299E-02, -7.51010090E-07,
                      -1.39971431E-08,  6.14187917E-12,  2.31155598E+04,
                       1.56915043E+01]),
                NASA([1051.00, 5000.00],
                     [ 7.36563803E+00,  2.10618703E-02, -8.19309974E-06,
                       1.49013817E-09, -1.03098104E-13,  2.14330121E+04,
                      -1.12174913E+01])),
        transport=gas_transport(geom='nonlinear',
                                diam=5.213,
                                well_depth=348.453))

species(name=u'H2(190)',
        atoms='H:2',
        thermo=(NASA([100.00, 1959.08],
                     [ 3.43536412E+00,  2.12710353E-04, -2.78625043E-07,
                       3.40267167E-10, -7.76031998E-14, -1.03135984E+03,
                      -3.90841732E+00]),
                NASA([1959.08, 5000.00],
                     [ 2.78816583E+00,  5.87640942E-04,  1.59010417E-07,
                      -5.52739026E-11,  4.34310984E-15, -5.96144270E+02,
                       1.12732655E-01])),
        transport=gas_transport(geom='linear',
                                diam=2.833,
                                well_depth=59.7))

species(name=u'C2H6(343)',
        atoms='H:6 C:2',
        thermo=(NASA([100.00, 1012.42],
                     [ 3.72239291E+00,  1.65083841E-03,  3.44175530E-05,
                      -3.76858229E-08,  1.24450657E-11, -1.15575901E+04,
                       4.68247999E+00]),
                NASA([1012.42, 5000.00],
                     [ 2.82848257E+00,  1.73040568E-02, -6.73334245E-06,
                       1.23742024E-09, -8.65676410E-14, -1.19978080E+04,
                       5.93811707E+00])),
        transport=gas_transport(geom='nonlinear',
                                diam=4.302,
                                well_depth=252.3,
                                rot_relax=1.5))

species(name=u'C4H6(361)',
        atoms='H:6 C:4',
        thermo=(NASA([100.00, 1112.31],
                     [ 2.52056465E+00,  2.79428158E-02, -9.18506908E-06,
                      -4.19486797E-09,  2.67702001E-12,  5.24840960E+04,
                       1.69976211E+01]),
                NASA([1112.31, 5000.00],
                     [ 7.71991356E+00,  1.77226803E-02, -6.83488785E-06,
                       1.24845754E-09, -8.64337761E-14,  5.08030179E+04,
                      -1.09969992E+01])),
        transport=gas_transport(geom='nonlinear',
                                diam=5.213,
                                well_depth=348.453))

species(name=u'C4H4(375)',
        atoms='H:4 C:4',
        thermo=(NASA([100.00, 945.64],
                     [ 2.64941705E+00,  1.74953360E-02,  2.75598608E-05,
                      -5.40990711E-08,  2.34464050E-11,  7.10974284E+04,
                       1.34200113E+01]),
                NASA([945.64, 5000.00],
                     [ 1.31243563E+01,  4.09951221E-03, -2.26053600E-07,
                       5.90146205E-11, -1.06408314E-14,  6.77341826E+04,
                      -4.38380369E+01])),
        transport=gas_transport(geom='nonlinear',
                                diam=5.008,
                                well_depth=348.579))

species(name=u'C4H6(393)',
        atoms='H:6 C:4',
        thermo=(NASA([100.00, 984.54],
                     [ 2.63758774E+00,  2.35736569E-02,  7.08744082E-06,
                      -2.35130541E-08,  1.01363111E-11,  1.83183897E+04,
                       1.26338870E+01]),
                NASA([984.54, 5000.00],
                     [ 7.91430062E+00,  1.72436337E-02, -6.28669477E-06,
                       1.12952987E-09, -7.88851301E-14,  1.65471267E+04,
                      -1.64596591E+01])),
        transport=gas_transport(geom='nonlinear',
                                diam=5.18,
                                well_depth=357.002,
                                rot_relax=1.0))

species(name=u'C4H6(411)',
        atoms='H:6 C:4',
        thermo=(NASA([100.00, 1025.60],
                     [ 2.74635309E+00,  2.18189067E-02,  8.22353080E-06,
                      -2.14768137E-08,  8.55623695E-12,  1.75635641E+04,
                       1.27380675E+01]),
                NASA([1025.60, 5000.00],
                     [ 6.82078026E+00,  1.92338176E-02, -7.45621651E-06,
                       1.36536040E-09, -9.53194832E-14,  1.60280303E+04,
                      -1.04332859E+01])),
        transport=gas_transport(geom='nonlinear',
                                diam=5.186,
                                well_depth=360.421))

species(name=u'C4H6a(435)',
        atoms='H:6 C:4',
        thermo=(NASA([100.00, 950.38],
                     [ 3.41327601E+00, -4.60830638E-03,  9.57205603E-05,
                      -1.18800574E-07,  4.44495312E-11,  1.74039828E+04,
                       1.01517556E+01]),
                NASA([950.38, 5000.00],
                     [ 9.72156091E+00,  1.36879055E-02, -3.93842260E-06,
                       7.58710118E-10, -6.16013131E-14,  1.41795804E+04,
                      -3.06164436E+01])),
        transport=gas_transport(geom='nonlinear',
                                diam=5.503,
                                well_depth=381.31))

species(name=u'C6H10(439)',
        atoms='H:10 C:6',
        thermo=(NASA([100.00, 969.70],
                     [ 2.39493639E+00,  1.31308716E-02,  1.02019898E-04,
                      -1.35266841E-07,  5.06735576E-11, -2.55363631E+03,
                       1.63461006E+01]),
                NASA([969.70, 5000.00],
                     [ 1.20193596E+01,  2.96991246E-02, -1.06504175E-05,
                       2.03502649E-09, -1.52378829E-13, -7.06570658E+03,
                      -4.34309725E+01])),
        transport=gas_transport(geom='nonlinear',
                                diam=6.352,
                                well_depth=436.658))

species(name=u'C4H4(500)',
        atoms='H:4 C:4',
        thermo=(NASA([100.00, 955.25],
                     [ 2.87083262E+00,  1.82042500E-02,  1.06710562E-05,
                      -2.72491598E-08,  1.19477652E-11,  3.30238451E+04,
                       1.12934384E+01]),
                NASA([955.25, 5000.00],
                     [ 8.52652790E+00,  1.08961504E-02, -3.56564474E-06,
                       6.31243407E-10, -4.51890878E-14,  3.11962382E+04,
                      -1.96435183E+01])),
        transport=gas_transport(geom='nonlinear',
                                diam=5.18,
                                well_depth=357.002,
                                rot_relax=1.0))

species(name=u'C4H4(522)',
        atoms='H:4 C:4',
        thermo=(NASA([100.00, 992.03],
                     [ 2.81497797E+00,  2.11615954E-02, -4.52137284E-07,
                      -1.34154519E-08,  6.41314031E-12,  3.68448308E+04,
                       1.05691528E+01]),
                NASA([992.03, 5000.00],
                     [ 7.69879306E+00,  1.27113255E-02, -4.67315110E-06,
                       8.44289703E-10, -5.91384351E-14,  3.53226756E+04,
                      -1.57414474E+01])),
        transport=gas_transport(geom='nonlinear',
                                diam=5.18,
                                well_depth=357.002,
                                rot_relax=1.0))

species(name=u'C6H8(537)',
        atoms='H:8 C:6',
        thermo=(NASA([100.00, 972.94],
                     [ 1.82686070E+00,  3.47046353E-02,  2.41070171E-05,
                      -5.44847920E-08,  2.29388832E-11,  1.99100661E+04,
                       1.81393315E+01]),
                NASA([972.94, 5000.00],
                     [ 1.21686202E+01,  2.40472785E-02, -8.58151834E-06,
                       1.57034031E-09, -1.12795334E-13,  1.63897115E+04,
                      -3.92195169E+01])),
        transport=gas_transport(geom='nonlinear',
                                diam=5.466,
                                well_depth=388.421))

species(name=u'C6H6(636)',
        atoms='H:6 C:6',
        thermo=(NASA([100.00, 917.12],
                     [ 1.24274251E+00,  5.13729437E-02, -2.57815642E-05,
                      -1.22273312E-08,  1.13749135E-11,  7.12831518E+04,
                       2.05276883E+01]),
                NASA([917.12, 5000.00],
                     [ 1.56771466E+01,  1.29530805E-02, -3.07320114E-06,
                       4.36478440E-10, -2.89475114E-14,  6.76036917E+04,
                      -5.34866246E+01])),
        transport=gas_transport(geom='nonlinear',
                                diam=5.514,
                                well_depth=396.052))

species(name=u'C4H2(682)',
        atoms='H:2 C:4',
        thermo=(NASA([100.00, 1061.13],
                     [ 2.01411643E+00,  3.10619641E-02, -3.68578677E-05,
                       2.21631830E-08, -5.16370411E-12,  5.35900904E+04,
                       1.03657985E+01]),
                NASA([1061.13, 5000.00],
                     [ 8.53383649E+00,  6.48510750E-03, -2.11585374E-06,
                       3.35827239E-10, -2.11540156E-14,  5.22064554E+04,
                      -2.14748357E+01])),
        transport=gas_transport(geom='linear',
                                diam=5.18,
                                well_depth=357.002,
                                rot_relax=1.0))

species(name=u'C6H6(726)',
        atoms='H:6 C:6',
        thermo=(NASA([100.00, 953.93],
                     [ 1.51916289E+00,  4.16874616E-02,  1.45347251E-06,
                      -3.78739871E-08,  1.91634864E-11,  3.89979829E+04,
                       1.84454356E+01]),
                NASA([953.93, 5000.00],
                     [ 1.57447351E+01,  1.36334566E-02, -4.11619486E-06,
                       7.39701042E-10, -5.55822017E-14,  3.48463207E+04,
                      -5.70490001E+01])),
        transport=gas_transport(geom='nonlinear',
                                diam=5.422,
                                well_depth=390.518))

species(name=u'C6H4(774)',
        atoms='H:4 C:6',
        thermo=(NASA([100.00, 1329.93],
                     [ 1.07495525E+00,  5.58213407E-02, -6.02627974E-05,
                       3.23054585E-08, -6.57908257E-12,  9.35222043E+04,
                       2.12409864E+01]),
                NASA([1329.93, 5000.00],
                     [ 1.49684418E+01,  9.02243533E-03, -1.82660074E-06,
                       1.79002112E-10, -7.29860213E-15,  9.02699510E+04,
                      -4.80821246E+01])),
        transport=gas_transport(geom='nonlinear',
                                diam=5.587,
                                well_depth=409.741))

species(name=u'C6H7(1131)',
        atoms='H:7 C:6',
        thermo=(NASA([100.00, 1539.48],
                     [ 1.19959138E-02,  6.25019335E-02, -8.40572629E-05,
                       5.67072586E-08, -1.25129517E-11,  2.15746033E+04,
                       1.91322845E+01]),
                NASA([1539.48, 5000.00],
                     [ 3.50257570E+00,  9.11387541E-03,  1.11437185E-05,
                      -3.21908003E-09,  2.55358925E-13,  2.57516066E+04,
                       1.78431335E+01])),
        transport=gas_transport(geom='nonlinear',
                                diam=6.135,
                                well_depth=437.763))

species(name=u'C6H6(1269)',
        atoms='H:6 C:6',
        thermo=(NASA([100.00, 950.54],
                     [ 2.79764807E+00,  4.22998583E-03,  1.01884107E-04,
                      -1.36126979E-07,  5.24194020E-11,  8.29476662E+03,
                       1.17441596E+01]),
                NASA([950.54, 5000.00],
                     [ 1.37514614E+01,  1.47356097E-02, -4.01292382E-06,
                       7.88502638E-10, -6.63792312E-14,  3.65534059E+03,
                      -5.39963571E+01])),
        transport=gas_transport(geom='nonlinear',
                                diam=5.949,
                                well_depth=399.3))

species(name=u'C4H5(1352)',
        atoms='H:5 C:4',
        thermo=(NASA([100.00, 1354.03],
                     [ 2.89840259E+00,  2.13487702E-02, -1.89615636E-06,