units(length='cm', time='s', quantity='mol', act_energy='kcal/mol')

ideal_gas(name='gas',
          elements="H D T C Ci O Oi N Ne Ar He Si S Cl X",
          species="""n-heptane  Ar         He         Ne         N2
                     C2H4(2)    C4H8-1(3)  C4H8-2(4)  H2(68)""",
          reactions='gas-*',
          initial_state=state(temperature=300.0, pressure=OneAtm))

ideal_interface(name='surface1',
                elements="H D T C Ci O Oi N Ne Ar He Si S Cl X",
                species="""X(1)        HX(5)       C2H3X(37)   allylX(38)
                          CH3X(39)    C2H5X(40)   C4H7X(42)   C4H9X(64)
                          C4H9X(65)   C2H2X(70)   CH2X(75)    CHX(85)
                          C3H5X(88)   CX(95)      C2H4X(108)  C2H3X(127)
                          C4H9X(157)  C4H9X(173)""",
                site_density=2.72e-09,
                phases="gas",
          reactions='surface1-*',
                initial_state=state(temperature=300.0, pressure=OneAtm))

#-------------------------------------------------------------------------------
# Element data
#-------------------------------------------------------------------------------

element(symbol=u'X', atomic_mass=195.083)
element(symbol=u'Ci', atomic_mass=13.003)
element(symbol=u'D', atomic_mass=2.014)
element(symbol=u'Oi', atomic_mass=18.0)
element(symbol=u'T', atomic_mass=3.016)
#-------------------------------------------------------------------------------
# Species data
#-------------------------------------------------------------------------------

species(name=u'n-heptane',
        atoms='H:16 C:7',
        thermo=(NASA([100.00, 1262.73],
                     [-2.91681405E-03,  7.69373649E-02, -3.48025563E-05,
                       1.86095180E-09,  2.01573617E-12, -2.57829342E+04,
                       3.00312148E+01]),
                NASA([1262.73, 5000.00],
                     [ 1.38377915E+01,  4.85945016E-02, -1.95474548E-05,
                       3.52837178E-09, -2.39064676E-13, -3.05141556E+04,
                      -4.48642836E+01])))

species(name=u'Ar',
        atoms='Ar:1',
        thermo=(NASA([200.00, 1000.00],
                     [ 2.50000000E+00,  0.00000000E+00,  0.00000000E+00,
                       0.00000000E+00,  0.00000000E+00, -7.45375000E+02,
                       4.37967000E+00]),
                NASA([1000.00, 6000.00],
                     [ 2.50000000E+00,  0.00000000E+00,  0.00000000E+00,
                       0.00000000E+00,  0.00000000E+00, -7.45375000E+02,
                       4.37967000E+00])))

species(name=u'He',
        atoms='He:1',
        thermo=(NASA([200.00, 1000.00],
                     [ 2.50000000E+00,  0.00000000E+00,  0.00000000E+00,
                       0.00000000E+00,  0.00000000E+00, -7.45375000E+02,
                       9.28724000E-01]),
                NASA([1000.00, 6000.00],
                     [ 2.50000000E+00,  0.00000000E+00,  0.00000000E+00,
                       0.00000000E+00,  0.00000000E+00, -7.45375000E+02,
                       9.28724000E-01])))

species(name=u'Ne',
        atoms='Ne:1',
        thermo=(NASA([200.00, 1000.00],
                     [ 2.50000000E+00,  0.00000000E+00,  0.00000000E+00,
                       0.00000000E+00,  0.00000000E+00, -7.45375000E+02,
                       3.35532000E+00]),
                NASA([1000.00, 6000.00],
                     [ 2.50000000E+00,  0.00000000E+00,  0.00000000E+00,
                       0.00000000E+00,  0.00000000E+00, -7.45375000E+02,
                       3.35532000E+00])))

species(name=u'N2',
        atoms='N:2',
        thermo=(NASA([200.00, 1000.00],
                     [ 3.53101000E+00, -1.23661000E-04, -5.02999000E-07,
                       2.43531000E-09, -1.40881000E-12, -1.04698000E+03,
                       2.96747000E+00]),
                NASA([1000.00, 6000.00],
                     [ 2.95258000E+00,  1.39690000E-03, -4.92632000E-07,
                       7.86010000E-11, -4.60755000E-15, -9.23949000E+02,
                       5.87189000E+00])))

species(name=u'C2H4(2)',
        atoms='H:4 C:2',
        thermo=(NASA([100.00, 979.36],
                     [ 3.97471606E+00, -4.75844285E-03,  4.16783770E-05,
                      -4.51392516E-08,  1.54224761E-11,  4.91540746E+03,
                       3.62430844E+00]),
                NASA([979.36, 5000.00],
                     [ 3.55660610E+00,  1.10627464E-02, -4.17019079E-06,
                       7.85586770E-10, -5.70060829E-14,  4.32046489E+03,
                       2.17719479E+00])))

species(name=u'C4H8-1(3)',
        atoms='H:8 C:4',
        thermo=(NASA([100.00, 1007.28],
                     [ 2.58772906E+00,  2.32777969E-02,  1.93412349E-05,
                      -3.55496333E-08,  1.36906009E-11, -1.91872926E+03,
                       1.45750618E+01]),
                NASA([1007.28, 5000.00],
                     [ 7.20517168E+00,  2.36361568E-02, -9.03150028E-06,
                       1.65392666E-09, -1.16019260E-13, -3.79733937E+03,
                      -1.24426257E+01])))

species(name=u'C4H8-2(4)',
        atoms='H:8 C:4',
        thermo=(NASA([100.00, 1157.79],
                     [ 2.51998327E+00,  2.76812799E-02,  9.43783469E-07,
                      -1.25009101E-08,  4.67144666E-12, -3.34374767E+03,
                       1.30195623E+01]),
                NASA([1157.79, 5000.00],
                     [ 6.04225708E+00,  2.60072350E-02, -1.04843374E-05,
                       1.90880922E-09, -1.30600505E-13, -4.86276511E+03,
                      -7.52715109E+00])))

species(name=u'H2(68)',
        atoms='H:2',
        thermo=(NASA([100.00, 1959.08],
                     [ 3.43536412E+00,  2.12710353E-04, -2.78625043E-07,
                       3.40267167E-10, -7.76031998E-14, -1.03135984E+03,
                      -3.90841732E+00]),
                NASA([1959.08, 5000.00],
                     [ 2.78816583E+00,  5.87640942E-04,  1.59010417E-07,
                      -5.52739026E-11,  4.34310984E-15, -5.96144270E+02,
                       1.12732655E-01])))

species(name=u'X(1)',
        atoms='X:1',
        thermo=(NASA([100.00, 1554.80],
                     [ 7.10139498E-03, -4.25619522E-05,  8.98533016E-08,
                      -7.80193649E-11,  2.32465471E-14, -8.76101712E-01,
                      -3.11211229E-02]),
                NASA([1554.80, 5000.00],
                     [ 1.60299900E-01, -2.52235409E-04,  1.14181275E-07,
                      -1.21471653E-11,  3.85790025E-16, -7.08100885E+01,
                      -9.09527530E-01])))

species(name=u'HX(5)',
        atoms='H:1 X:1',
        thermo=(NASA([100.00, 952.91],
                     [-3.80965452E-01,  5.47228709E-03,  2.60912778E-06,
                      -9.64961980E-09,  4.63946753E-12, -7.19163862E+02,
                       1.01725550E+00]),
                NASA([952.91, 5000.00],
                     [ 2.80339655E+00, -5.41047017E-04,  4.99507978E-07,
                      -7.54963647E-11,  3.06772366E-15, -1.65991328E+03,
                      -1.59436787E+01])))

species(name=u'C2H3X(37)',
        atoms='H:3 C:2 X:1',
        thermo=(NASA([100.00, 928.62],
                     [ 3.83091018E+00, -8.76381562E-03,  6.97956896E-05,
                      -8.67969174E-08,  3.33218121E-11, -7.82836751E+03,
                      -1.81151753E+01]),
                NASA([928.62, 5000.00],
                     [ 8.78054562E+00,  1.92497720E-03,  8.25825014E-07,
                      -1.63749818E-10,  5.71728318E-15, -1.01277706E+04,
                      -4.90588618E+01])))

species(name=u'allylX(38)',
        atoms='H:5 C:3 X:1',
        thermo=(NASA([100.00, 937.34],
                     [ 3.44148119E+00, -3.47700003E-03,  8.25933681E-05,
                      -1.05556823E-07,  4.04445066E-11, -1.13702056E+04,
                      -6.88846669E+00]),
                NASA([937.34, 5000.00],
                     [ 9.98148902E+00,  8.92268754E-03, -1.75442587E-06,
                       3.12285771E-10, -2.84156572E-14, -1.43670033E+04,
                      -4.74626902E+01])))

species(name=u'CH3X(39)',
        atoms='H:3 C:1 X:1',
        thermo=(NASA([100.00, 848.30],
                     [-1.21090496E+00,  2.92390681E-02, -4.49011079E-05,
                       3.86009808E-08, -1.30361041E-11, -1.55488841E+04,
                       6.80939750E+00]),
                NASA([848.30, 5000.00],
                     [ 1.62290877E+00,  1.12987268E-02, -5.08316908E-06,
                       9.46833581E-10, -6.42885536E-14, -1.58649491E+04,
                      -5.42501059E+00])))

species(name=u'C2H5X(40)',
        atoms='H:5 C:2 X:1',
        thermo=(NASA([100.00, 803.81],
                     [-1.64625424E+00,  3.89626488E-02, -4.31128887E-05,
                       2.97076939E-08, -8.80222915E-12, -1.95325592E+04,
                       9.27323637E+00]),
                NASA([803.81, 5000.00],
                     [ 1.97598112E+00,  2.09382766E-02, -9.47916922E-06,
                       1.81392948E-09, -1.27206354E-13, -2.01149079E+04,
                      -7.41107956E+00])))

species(name=u'C4H7X(42)',
        atoms='H:7 C:4 X:1',
        thermo=(NASA([100.00, 986.67],
                     [ 2.45798205E+00,  2.47217336E-02,  2.01285964E-05,
                      -4.02735564E-08,  1.62485845E-11, -6.92472803E+03,
                      -5.12991781E+00]),
                NASA([986.67, 5000.00],
                     [ 8.87898065E+00,  2.09043993E-02, -7.83851223E-06,
                       1.44076477E-09, -1.02346878E-13, -9.27308414E+03,
                      -4.15007572E+01])))

species(name=u'C4H9X(64)',
        atoms='H:9 C:4 X:1',
        thermo=(NASA([100.00, 1009.34],
                     [ 2.45382734E+00,  2.40994657E-02,  3.11010256E-05,
                      -4.95699577E-08,  1.85293661E-11, -2.36706894E+04,
                      -3.52847415E+00]),
                NASA([1009.34, 5000.00],
                     [ 7.52084135E+00,  2.82413531E-02, -1.10515535E-05,
                       2.04772333E-09, -1.44617914E-13, -2.59274109E+04,
                      -3.41331625E+01])))

species(name=u'C4H9X(65)',
        atoms='H:9 C:4 X:1',
        thermo=(NASA([100.00, 993.09],
                     [ 2.22649262E+00,  2.86530428E-02,  2.37814781E-05,
                      -4.60601877E-08,  1.82913065E-11, -2.23876745E+04,
                      -3.55141667E+00]),
                NASA([993.09, 5000.00],
                     [ 9.09063018E+00,  2.59568873E-02, -9.83403420E-06,
                       1.80637207E-09, -1.27731480E-13, -2.49813959E+04,
                      -4.28140480E+01])))

species(name=u'C2H2X(70)',
        atoms='H:2 C:2 X:1',
        thermo=(NASA([100.00, 1146.89],
                     [-1.35665997E+00,  2.85338019E-02, -3.11240758E-05,
                       1.70134067E-08, -3.63322671E-12, -2.12052422E+04,
                       3.79543665E+00]),
                NASA([1146.89, 5000.00],
                     [ 4.86807469E+00,  6.82428196E-03, -2.73110334E-06,
                       5.09415334E-10, -3.57467832E-14, -2.26330885E+04,
                      -2.70885611E+01])))

species(name=u'CH2X(75)',
        atoms='H:2 C:1 X:1',
        thermo=(NASA([100.00, 1199.82],
                     [-1.02006594E+00,  2.03778552E-02, -2.17291076E-05,
                       1.15868543E-08, -2.38469979E-12, -1.92094610E+04,
                       2.99160459E+00]),
                NASA([1199.82, 5000.00],
                     [ 3.89285483E+00,  3.99892281E-03, -1.25227942E-06,
                       2.09081361E-10, -1.39642489E-14, -2.03883798E+04,
                      -2.16053707E+01])))

species(name=u'CHX(85)',
        atoms='H:1 C:1 X:1',
        thermo=(NASA([100.00, 1596.82],
                     [-9.66375239E-01,  1.63179003E-02, -1.75392280E-05,
                       8.64095863E-09, -1.55501450E-12, -3.16403959E+04,
                       2.54982370E+00]),
                NASA([1596.82, 5000.00],
                     [ 4.21481268E+00,  2.18383120E-04,  5.15662242E-07,
                      -1.20800791E-10,  8.35331125E-15, -3.28972113E+04,
                      -2.36254632E+01])))

species(name=u'C3H5X(88)',
        atoms='H:5 C:3 X:1',
        thermo=(NASA([100.00, 946.02],
                     [ 3.27693369E+00,  3.84253259E-03,  5.69854034E-05,
                      -7.61339325E-08,  2.92928923E-11, -1.34290585E+04,
                      -1.34283913E+01]),
                NASA([946.02, 5000.00],
                     [ 8.81692983E+00,  1.11131640E-02, -3.21294654E-06,
                       5.86623487E-10, -4.55861620E-14, -1.58507725E+04,
                      -4.71077607E+01])))

species(name=u'CX(95)',
        atoms='X:1 C:1',
        thermo=(NASA([100.00, 1401.12],
                     [-6.04857932E-01,  1.10908424E-02, -1.34369871E-05,
                       7.18241020E-09, -1.40685955E-12, -3.14698518E+04,
                       1.48480596E+00]),
                NASA([1401.12, 5000.00],
                     [ 3.08077816E+00, -6.87491579E-04,  5.17603202E-07,
                      -9.73051930E-11,  6.24267331E-15, -3.23793356E+04,
                      -1.70992417E+01])))

species(name=u'C2H4X(108)',
        atoms='H:4 C:2 X:1',
        thermo=(NASA([100.00, 922.92],
                     [-1.51744559E+00,  3.54364794E-02, -3.81057246E-05,
                       2.35708696E-08, -6.09814448E-12, -2.43179270E+04,
                       5.77183816E+00]),
                NASA([922.92, 5000.00],
                     [ 2.83446173E+00,  1.65755797E-02, -7.45248059E-06,
                       1.42932264E-09, -1.00637720E-13, -2.51212438E+04,
                      -1.48746526E+01])))

species(name=u'C2H3X(127)',
        atoms='H:3 C:2 X:1',
        thermo=(NASA([100.00, 808.66],
                     [-1.45265119E+00,  3.42707130E-02, -4.40842489E-05,
                       3.22607728E-08, -9.67624704E-12, -3.93607531E+04,
                       5.13282637E+00]),
                NASA([808.66, 5000.00],
                     [ 2.64802880E+00,  1.39871175E-02, -6.46022245E-06,
                       1.24353765E-09, -8.72725792E-14, -4.00239718E+04,
                      -1.37797421E+01])))

species(name=u'C4H9X(157)',
        atoms='H:9 C:4 X:1',
        thermo=(NASA([100.00, 971.26],
                     [ 2.18772440E+00,  2.80528478E-02,  2.95105136E-05,
                      -5.52418068E-08,  2.24096997E-11, -2.31648383E+04,
                      -4.38995955E+00]),
                NASA([971.26, 5000.00],
                     [ 1.02820894E+01,  2.36845782E-02, -8.47958205E-06,
                       1.54097166E-09, -1.09822739E-13, -2.61034988E+04,
                      -5.02382526E+01])))

species(name=u'C4H9X(173)',
        atoms='H:9 C:4 X:1',
        thermo=(NASA([100.00, 1080.66],
                     [ 2.49980748E+00,  2.56090126E-02,  2.02156117E-05,
                      -3.35382937E-08,  1.17334539E-11, -2.55135130E+04,
                      -5.31057752E+00]),
                NASA([1080.66, 5000.00],
                     [ 5.84130366E+00,  3.13511981E-02, -1.28929697E-05,
                       2.39456635E-09, -1.66872037E-13, -2.72932139E+04,
                      -2.65834022E+01])))

#-------------------------------------------------------------------------------
# Reaction data
#-------------------------------------------------------------------------------



#  Reaction index: Chemkin #1; RMG #36
#  Template reaction: Surface_Adsorption_Dissociative
#  Flux pairs: C2H4(2), C2H3X(37); C2H4(2), HX(5);
#  Exact match found for rate rule [C-H;VacantSite1;VacantSite2]
#  Euclidian distance = 0
#  Multiplied by reaction path degeneracy 4.0
#  family: Surface_Adsorption_Dissociative

# surface1 Reaction 1
surface_reaction('C2H4(2) + X(1) + X(1) <=> HX(5) + C2H3X(37)', stick(1.240000e-04, 0.0, 6.4),
                 id='surface1-1')
#  Reaction index: Chemkin #2; RMG #96
#  Template reaction: Surface_Adsorption_Dissociative
#  Flux pairs: H2(68), HX(5); H2(68), HX(5);
#  Exact match found for rate rule [H-H;VacantSite1;VacantSite2]
#  Euclidian distance = 0
#  family: Surface_Adsorption_Dissociative

# surface1 Reaction 2
surface_reaction('X(1) + X(1) + H2(68) <=> HX(5) + HX(5)', stick(3.200000e-02, 0.0, 0.0),
                 id='surface1-2')
#  Reaction index: Chemkin #3; RMG #99
#  Template reaction: Surface_Dissociation
#  Flux pairs: C2H3X(37), C2H2X(70); C2H3X(37), HX(5);
#  Exact match found for rate rule [Combined;VacantSite]
#  Euclidian distance = 0
#  family: Surface_Dissociation

# surface1 Reaction 3
surface_reaction('X(1) + C2H3X(37) <=> HX(5) + C2H2X(70)', [1.000000e+21, 0.0, 19.957],
                 id='surface1-3')
#  Reaction index: Chemkin #4; RMG #40
#  Template reaction: Surface_Adsorption_Dissociative
#  Flux pairs: C4H8-1(3), C4H7X(42); C4H8-1(3), HX(5);
#  Exact match found for rate rule [C-H;VacantSite1;VacantSite2]
#  Euclidian distance = 0
#  Multiplied by reaction path degeneracy 3.0
#  family: Surface_Adsorption_Dissociative

# surface1 Reaction 4
surface_reaction('X(1) + X(1) + C4H8-1(3) <=> HX(5) + C4H7X(42)', stick(9.300000e-05, 0.0, 6.4),
                 id='surface1-4')
#  Reaction index: Chemkin #5; RMG #100
#  Template reaction: Surface_EleyRideal_Addition_Multiple_Bond
#  Flux pairs: C2H4(2), C4H7X(42); C2H3X(37), C4H7X(42);
#  Estimated using template [*C;R=R] for rate rule [*C;C=C]
#  Euclidian distance = 1.0
#  Multiplied by reaction path degeneracy 2.0
#  family: Surface_EleyRideal_Addition_Multiple_Bond

# surface1 Reaction 5
surface_reaction('C2H4(2) + C2H3X(37) <=> C4H7X(42)', stick(1.000000e-01, 0.0, 16.41),
                 id='surface1-5')
#  Reaction index: Chemkin #6; RMG #114
#  Template reaction: Surface_Dissociation
#  Flux pairs: C4H7X(42), CH2X(75); C4H7X(42), allylX(38);
#  Exact match found for rate rule [Combined;VacantSite]
#  Euclidian distance = 0
#  family: Surface_Dissociation

# surface1 Reaction 6
surface_reaction('X(1) + C4H7X(42) <=> CH2X(75) + allylX(38)', [1.000000e+21, 0.0, 4.606],
                 id='surface1-6')
#  Reaction index: Chemkin #7; RMG #128
#  Template reaction: Surface_Dissociation
#  Flux pairs: allylX(38), C2H3X(37); allylX(38), CH2X(75);
#  Exact match found for rate rule [Combined;VacantSite]
#  Euclidian distance = 0
#  family: Surface_Dissociation

# surface1 Reaction 7
surface_reaction('X(1) + allylX(38) <=> C2H3X(37) + CH2X(75)', [1.000000e+21, 0.0, 18.486],
                 id='surface1-7')
#  Reaction index: Chemkin #8; RMG #125
#  Template reaction: Surface_Dissociation
#  Flux pairs: CHX(85), CH2X(75); HX(5), CH2X(75);
#  Matched reaction 18 CHX_3 + HX_5 <=> CH2X_1 + Ni_4 in Surface_Dissociation/training
#  This reaction matched rate rule [Combined;VacantSite]
#  family: Surface_Dissociation
#  Ea raised from 81.0 to 109.5 kJ/mol to match endothermicity of reaction.

# surface1 Reaction 8
surface_reaction('HX(5) + CHX(85) <=> X(1) + CH2X(75)', [9.770000e+24, -0.087, 26.165],
                 id='surface1-8')
#  Reaction index: Chemkin #9; RMG #129
#  Template reaction: Surface_Abstraction
#  Flux pairs: C2H3X(37), CH2X(75); CHX(85), C2H2X(70);
#  Exact match found for rate rule [Abstracting;R-H]
#  Euclidian distance = 0
#  family: Surface_Abstraction

# surface1 Reaction 9
surface_reaction('C2H3X(37) + CHX(85) <=> CH2X(75) + C2H2X(70)', [5.000000e+21, 0.0, 9.56],
                 id='surface1-9')
#  Reaction index: Chemkin #10; RMG #134
#  Template reaction: Surface_Migration
#  Flux pairs: allylX(38), C3H5X(88);
#  Exact match found for rate rule [*C]
#  Euclidian distance = 0
#  family: Surface_Migration

# surface1 Reaction 10
surface_reaction('allylX(38) <=> C3H5X(88)', [7.336000e+12, 0.0, 14.18],
                 id='surface1-10')
#  Reaction index: Chemkin #11; RMG #37
#  Template reaction: Surface_Adsorption_Dissociative
#  Flux pairs: C4H8-1(3), allylX(38); C4H8-1(3), CH3X(39);
#  Exact match found for rate rule [C-C;VacantSite1;VacantSite2]
#  Euclidian distance = 0
#  family: Surface_Adsorption_Dissociative

# surface1 Reaction 11
surface_reaction('X(1) + X(1) + C4H8-1(3) <=> CH3X(39) + allylX(38)', stick(6.595000e-04, 0.0, 9.0),
                 id='surface1-11')
#  Reaction index: Chemkin #12; RMG #126
#  Template reaction: Surface_Dissociation
#  Flux pairs: HX(5), CH3X(39); CH2X(75), CH3X(39);
#  Matched reaction 16 CH2X_3 + HX_5 <=> CH3X_1 + Ni_4 in Surface_Dissociation/training
#  This reaction matched rate rule [Combined;VacantSite]
#  family: Surface_Dissociation

# surface1 Reaction 12
surface_reaction('HX(5) + CH2X(75) <=> X(1) + CH3X(39)', [3.090000e+23, -0.087, 13.671],
                 id='surface1-12')
#  Reaction index: Chemkin #13; RMG #127
#  Template reaction: Surface_Abstraction
#  Flux pairs: C2H3X(37), CH3X(39); CH2X(75), C2H2X(70);
#  Exact match found for rate rule [Abstracting;R-H]
#  Euclidian distance = 0
#  family: Surface_Abstraction

# surface1 Reaction 13
surface_reaction('C2H3X(37) + CH2X(75) <=> C2H2X(70) + CH3X(39)', [5.000000e+21, 0.0, 9.56],
                 id='surface1-13')
#  Reaction index: Chemkin #14; RMG #132
#  Template reaction: Surface_Abstraction
#  Flux pairs: CH2X(75), CH3X(39); CH2X(75), CHX(85);
#  Exact match found for rate rule [Abstracting;R-H]
#  Euclidian distance = 0
#  Multiplied by reaction path degeneracy 2.0
#  family: Surface_Abstraction

# surface1 Reaction 14
surface_reaction('CH2X(75) + CH2X(75) <=> CHX(85) + CH3X(39)', [1.000000e+22, 0.0, 9.56],
                 id='surface1-14')
#  Reaction index: Chemkin #15; RMG #164
#  Template reaction: Surface_Dissociation
#  Flux pairs: C3H5X(88), C2H2X(70); C3H5X(88), CH3X(39);
#  Exact match found for rate rule [Combined;VacantSite]
#  Euclidian distance = 0
#  family: Surface_Dissociation

# surface1 Reaction 15
surface_reaction('X(1) + C3H5X(88) <=> C2H2X(70) + CH3X(39)', [1.000000e+21, 0.0, 4.843],
                 id='surface1-15')
#  Reaction index: Chemkin #16; RMG #38
#  Template reaction: Surface_Adsorption_Dissociative
#  Flux pairs: C4H8-1(3), C2H5X(40); C4H8-1(3), C2H3X(37);
#  Exact match found for rate rule [C-C;VacantSite1;VacantSite2]
#  Euclidian distance = 0
#  family: Surface_Adsorption_Dissociative

# surface1 Reaction 16
surface_reaction('X(1) + X(1) + C4H8-1(3) <=> C2H3X(37) + C2H5X(40)', stick(6.595000e-04, 0.0, 9.0),
                 id='surface1-16')
#  Reaction index: Chemkin #17; RMG #64
#  Template reaction: Surface_EleyRideal_Addition_Multiple_Bond
#  Flux pairs: C2H4(2), C2H5X(40); HX(5), C2H5X(40);
#  Estimated using template [*H;R=R] for rate rule [*H;C=C]
#  Euclidian distance = 1.0
#  Multiplied by reaction path degeneracy 2.0
#  family: Surface_EleyRideal_Addition_Multiple_Bond

# surface1 Reaction 17
surface_reaction('C2H4(2) + HX(5) <=> C2H5X(40)', stick(1.000000e-01, 0.0, 16.41),
                 id='surface1-17')
#  Reaction index: Chemkin #18; RMG #173
#  Template reaction: Surface_Abstraction
#  Flux pairs: C3H5X(88), C2H5X(40); CH2X(75), C2H2X(70);
#  Estimated using template [Abstracting;Donating] for rate rule [Abstracting;R-C]
#  Euclidian distance = 1.0
#  family: Surface_Abstraction

# surface1 Reaction 18
surface_reaction('C3H5X(88) + CH2X(75) <=> C2H5X(40) + C2H2X(70)', [1.000000e+19, 0.0, 19.12],
                 id='surface1-18')
#  Reaction index: Chemkin #19; RMG #187
#  Template reaction: Surface_Dissociation
#  Flux pairs: C2H5X(40), CH3X(39); C2H5X(40), CH2X(75);
#  Exact match found for rate rule [Combined;VacantSite]
#  Euclidian distance = 0
#  family: Surface_Dissociation

# surface1 Reaction 19
surface_reaction('X(1) + C2H5X(40) <=> CH2X(75) + CH3X(39)', [1.000000e+21, 0.0, 19.049],
                 id='surface1-19')
#  Reaction index: Chemkin #20; RMG #176
#  Template reaction: Surface_Abstraction
#  Flux pairs: C3H5X(88), C2H4X(108); CHX(85), C2H2X(70);
#  Estimated using template [Abstracting;Donating] for rate rule [Abstracting;R-C]
#  Euclidian distance = 1.0
#  family: Surface_Abstraction

# surface1 Reaction 20
surface_reaction('C3H5X(88) + CHX(85) <=> C2H2X(70) + C2H4X(108)', [1.000000e+19, 0.0, 19.12],
                 id='surface1-20')
#  Reaction index: Chemkin #21; RMG #188
#  Template reaction: Surface_Dissociation
#  Flux pairs: C2H4X(108), CH3X(39); C2H4X(108), CHX(85);
#  Exact match found for rate rule [Combined;VacantSite]
#  Euclidian distance = 0
#  family: Surface_Dissociation

# surface1 Reaction 21
surface_reaction('X(1) + C2H4X(108) <=> CHX(85) + CH3X(39)', [1.000000e+21, 0.0, 6.207],
                 id='surface1-21')
#  Reaction index: Chemkin #22; RMG #192
#  Template reaction: Surface_Dissociation
#  Flux pairs: C2H5X(40), C2H4X(108); C2H5X(40), HX(5);
#  Exact match found for rate rule [Combined;VacantSite]
#  Euclidian distance = 0
#  Multiplied by reaction path degeneracy 2.0
#  family: Surface_Dissociation

# surface1 Reaction 22
surface_reaction('X(1) + C2H5X(40) <=> HX(5) + C2H4X(108)', [2.000000e+21, 0.0, 35.146],
                 id='surface1-22')
#  Reaction index: Chemkin #23; RMG #198
#  Template reaction: Surface_Abstraction
#  Flux pairs: C2H3X(37), C2H5X(40); C2H4X(108), C2H2X(70);
#  Exact match found for rate rule [Abstracting;R-H]
#  Euclidian distance = 0
#  family: Surface_Abstraction

# surface1 Reaction 23
surface_reaction('C2H3X(37) + C2H4X(108) <=> C2H5X(40) + C2H2X(70)', [5.000000e+21, 0.0, 9.56],
                 id='surface1-23')
#  Reaction index: Chemkin #24; RMG #201
#  Template reaction: Surface_Abstraction
#  Flux pairs: C2H5X(40), CH3X(39); CH2X(75), C2H4X(108);
#  Exact match found for rate rule [Abstracting;R-H]
#  Euclidian distance = 0
#  Multiplied by reaction path degeneracy 2.0
#  family: Surface_Abstraction

# surface1 Reaction 24
surface_reaction('C2H5X(40) + CH2X(75) <=> C2H4X(108) + CH3X(39)', [1.000000e+22, 0.0, 9.56],
                 id='surface1-24')
#  Reaction index: Chemkin #25; RMG #204
#  Template reaction: Surface_Abstraction
#  Flux pairs: C2H4X(108), C2H5X(40); CH2X(75), CHX(85);
#  Exact match found for rate rule [Abstracting;R-H]
#  Euclidian distance = 0
#  Multiplied by reaction path degeneracy 2.0
#  family: Surface_Abstraction

# surface1 Reaction 25
surface_reaction('CH2X(75) + C2H4X(108) <=> C2H5X(40) + CHX(85)', [1.000000e+22, 0.0, 9.56],
                 options='duplicate',
                 id='surface1-25')
#  Reaction index: Chemkin #26; RMG #205
#  Template reaction: Surface_Abstraction
#  Flux pairs: C2H5X(40), CH2X(75); CHX(85), C2H4X(108);
#  Exact match found for rate rule [Abstracting;R-H]
#  Euclidian distance = 0
#  Multiplied by reaction path degeneracy 2.0
#  family: Surface_Abstraction

# surface1 Reaction 26
surface_reaction('C2H5X(40) + CHX(85) <=> CH2X(75) + C2H4X(108)', [1.000000e+22, 0.0, 15.288],
                 options='duplicate',
                 id='surface1-26')
#  Reaction index: Chemkin #27; RMG #216
#  Template reaction: Surface_Abstraction
#  Flux pairs: C2H4X(108), C2H5X(40); CH2X(75), CHX(85);
#  Estimated using template [Abstracting;Donating] for rate rule [Abstracting;R-C]
#  Euclidian distance = 1.0
#  family: Surface_Abstraction

# surface1 Reaction 27
surface_reaction('CH2X(75) + C2H4X(108) <=> C2H5X(40) + CHX(85)', [1.000000e+19, 0.0, 19.12],
                 options='duplicate',
                 id='surface1-27')
#  Reaction index: Chemkin #28; RMG #218
#  Template reaction: Surface_Abstraction
#  Flux pairs: CH2X(75), C2H5X(40); C2H4X(108), CHX(85);
#  Exact match found for rate rule [Abstracting;R-H]
#  Euclidian distance = 0
#  Multiplied by reaction path degeneracy 2.0
#  family: Surface_Abstraction

# surface1 Reaction 28
surface_reaction('CH2X(75) + C2H4X(108) <=> C2H5X(40) + CHX(85)', [1.000000e+22, 0.0, 9.56],
                 options='duplicate',
                 id='surface1-28')
#  Reaction index: Chemkin #29; RMG #210
#  Template reaction: Surface_Dissociation
#  Flux pairs: C2H4X(108), C2H3X(127); C2H4X(108), HX(5);
#  Exact match found for rate rule [Combined;VacantSite]
#  Euclidian distance = 0
#  family: Surface_Dissociation

# surface1 Reaction 29
surface_reaction('X(1) + C2H4X(108) <=> HX(5) + C2H3X(127)', [1.000000e+21, 0.0, 18.049],
                 id='surface1-29')
#  Reaction index: Chemkin #30; RMG #212
#  Template reaction: Surface_Abstraction
#  Flux pairs: C2H4X(108), C2H3X(37); C2H2X(70), C2H3X(127);
#  Exact match found for rate rule [Abstracting;R-H]
#  Euclidian distance = 0
#  family: Surface_Abstraction

# surface1 Reaction 30
surface_reaction('C2H2X(70) + C2H4X(108) <=> C2H3X(127) + C2H3X(37)', [5.000000e+21, 0.0, 9.56],
                 id='surface1-30')
#  Reaction index: Chemkin #31; RMG #217
#  Template reaction: Surface_Abstraction
#  Flux pairs: C2H4X(108), CH3X(39); CH2X(75), C2H3X(127);
#  Exact match found for rate rule [Abstracting;R-H]
#  Euclidian distance = 0
#  family: Surface_Abstraction

# surface1 Reaction 31
surface_reaction('CH2X(75) + C2H4X(108) <=> C2H3X(127) + CH3X(39)', [5.000000e+21, 0.0, 9.56],
                 id='surface1-31')
#  Reaction index: Chemkin #32; RMG #222
#  Template reaction: Surface_Abstraction
#  Flux pairs: C2H4X(108), CH2X(75); CHX(85), C2H3X(127);
#  Exact match found for rate rule [Abstracting;R-H]
#  Euclidian distance = 0
#  family: Surface_Abstraction

# surface1 Reaction 32
surface_reaction('CHX(85) + C2H4X(108) <=> C2H3X(127) + CH2X(75)', [5.000000e+21, 0.0, 9.56],
                 id='surface1-32')
#  Reaction index: Chemkin #33; RMG #230
#  Template reaction: Surface_Abstraction
#  Flux pairs: C2H4X(108), C2H5X(40); C2H4X(108), C2H3X(127);
#  Exact match found for rate rule [Abstracting;R-H]
#  Euclidian distance = 0
#  family: Surface_Abstraction

# surface1 Reaction 33
surface_reaction('C2H4X(108) + C2H4X(108) <=> C2H3X(127) + C2H5X(40)', [5.000000e+21, 0.0, 9.56],
                 id='surface1-33')
#  Reaction index: Chemkin #34; RMG #90
#  Template reaction: Surface_EleyRideal_Addition_Multiple_Bond