units(length='cm', time='s', quantity='mol', act_energy='kcal/mol')

ideal_gas(name='gas',
          elements="H D T C Ci O Oi N Ne Ar He Si S Cl X",
          species="""n-heptane  Ar         He         Ne         N2
                     C2H4(2)    C4H8-1(3)  C4H8-2(4)""",
          reactions='gas-*',
          initial_state=state(temperature=300.0, pressure=OneAtm))

ideal_interface(name='surface1',
                elements="H D T C Ci O Oi N Ne Ar He Si S Cl X",
                species="""X(1)        HX(5)       C2H3X(37)   CH3X(39)
                          C2H5X(40)   C4H9X(64)   C4H9X(65)   C2H2X(70)
                          CH2X(75)    C2H4X(76)   C6H13X(77)  C6H13X(78)
                          C6H13X(79)  C6H13X(85)  C8H17X(86)  C8H17X(87)
                          C8H17X(88)  C4H9X(94)   C6H13X(97)  C8H17X(98)
                          C8H17X(99)  SX(100)     C4H9X(107)  SX(111)
                          SX(112)     SX(113)     SX(114)     SX(125)
                          SX(126)     SX(127)     SX(128)     SX(136)
                          SX(138)     SX(140)     SX(153)     SX(157)
                          SX(171)     SX(174)     SX(190)     SX(191)
                          SX(193)     SX(195)     SX(214)     SX(217)
                          SX(236)     SX(252)     SX(254)     SX(272)
                          SX(276)     SX(293)     SX(295)     SX(315)
                          SX(318)     SX(340)     SX(342)     SX(366)
                          SX(367)     SX(368)     SX(393)     SX(396)
                          SX(420)     SX(422)     SX(424)     SX(454)
                          SX(482)     SX(506)     SX(508)     CHX(533)
                          C2H3X(534)  SX(535)     SX(536)     SX(537)
                          SX(538)     SX(539)     SX(540)     SX(541)
                          SX(542)     SX(543)     SX(544)     SX(545)
                          SX(546)     SX(547)     SX(548)     SX(549)
                          SX(550)     SX(551)     SX(552)     SX(553)
                          SX(554)     SX(555)     CX(556)     SX(584)
                          SX(616)     SX(617)     SX(649)     SX(650)
                          SX(651)     SX(687)     SX(688)     SX(690)
                          SX(721)     SX(732)     SX(733)     SX(773)
                          SX(774)     SX(813)     SX(845)     SX(857)
                          SX(858)     SX(860)     SX(890)     SX(979)
                          SX(1004)    SX(1020)    SX(1053)    SX(1072)
                          SX(1157)    SX(1197)    SX(1221)    SX(1242)
                          SX(1265)    SX(1289)    SX(1340)    SX(1370)
                          SX(1394)    SX(1437)    SX(1439)    SX(1469)
                          SX(1495)    SX(1517)    SX(1544)    SX(1545)
                          SX(1629)    SX(1659)    SX(1688)    SX(1719)
                          SX(1777)    SX(1863)    SX(1896)    SX(1898)
                          SX(1929)    SX(1964)    SX(2078)    SX(2099)
                          SX(2136)    SX(2165)    SX(2203)    SX(2205)
                          SX(2275)    SX(2341)    SX(2343)    SX(2372)
                          SX(2414)    SX(2415)    SX(2616)    SX(2688)
                          SX(2827)    SX(2895)    SX(3114)    SX(3265)
                          SX(3345)    SX(3414)    SX(3488)    SX(3489)
                          SX(3657)    SX(3684)    SX(3744)    SX(3829)
                          SX(3831)    SX(4008)    SX(4009)    SX(4011)
                          SX(4042)    SX(4268)    SX(4524)    SX(4689)
                          SX(4775)    SX(4875)    SX(4979)    SX(5184)
                          SX(5375)    SX(5467)    SX(5751)    SX(5953)
                          SX(6382)    SX(6393)    SX(6576)    SX(6677)
                          SX(6911)    SX(7195)    SX(7196)    SX(7197)
                          SX(7198)    SX(7199)    SX(7200)    SX(7201)
                          SX(7202)    SX(7203)    SX(7204)    SX(7205)
                          SX(7206)    SX(7207)    SX(7208)    SX(7209)
                          SX(7210)    SX(7211)    SX(7212)    SX(7213)
                          SX(7214)    SX(7215)    SX(7216)    SX(7217)
                          SX(7218)    SX(7219)    SX(7220)    SX(7221)
                          SX(7222)    SX(7223)    SX(7224)    SX(7225)
                          SX(7227)    SX(7228)    SX(7231)    SX(7237)
                          SX(7238)    SX(7240)    SX(7241)    SX(7242)
                          SX(7246)    SX(7249)    SX(7251)    SX(7252)
                          SX(7254)    SX(7255)    SX(7257)    SX(7271)
                          SX(7272)    SX(7273)    SX(7274)    SX(7275)
                          SX(7278)    SX(7281)    SX(7534)    SX(7537)
                          SX(7902)    SX(7998)    SX(11911)   SX(11912)
                          SX(12058)   SX(12232)   SX(12233)   SX(12339)
                          SX(12513)   SX(12678)   SX(12785)   SX(12894)
                          SX(13076)   SX(13878)   SX(14175)   SX(14735)
                          SX(14924)   SX(15040)   SX(15233)   SX(15234)
                          SX(15429)   SX(15430)   SX(15874)   SX(16059)
                          SX(17557)   SX(18004)   SX(18982)   SX(18983)
                          SX(19201)   SX(19386)   SX(19387)   SX(19604)
                          SX(20525)   SX(21078)   SX(22397)   SX(23118)
                          SX(23355)   SX(25161)   SX(27370)   SX(27783)
                          SX(28268)   SX(28695)""",
                site_density=2.72e-09,
                phases="gas",
          reactions='surface1-*',
                initial_state=state(temperature=300.0, pressure=OneAtm))

#-------------------------------------------------------------------------------
# Element data
#-------------------------------------------------------------------------------

element(symbol=u'X', atomic_mass=195.083)
element(symbol=u'Ci', atomic_mass=13.003)
element(symbol=u'D', atomic_mass=2.014)
element(symbol=u'Oi', atomic_mass=18.0)
element(symbol=u'T', atomic_mass=3.016)
#-------------------------------------------------------------------------------
# Species data
#-------------------------------------------------------------------------------

species(name=u'n-heptane',
        atoms='H:16 C:7',
        thermo=(NASA([100.00, 1262.73],
                     [-2.91681405E-03,  7.69373649E-02, -3.48025563E-05,
                       1.86095180E-09,  2.01573617E-12, -2.57829342E+04,
                       3.00312148E+01]),
                NASA([1262.73, 5000.00],
                     [ 1.38377915E+01,  4.85945016E-02, -1.95474548E-05,
                       3.52837178E-09, -2.39064676E-13, -3.05141556E+04,
                      -4.48642836E+01])))

species(name=u'Ar',
        atoms='Ar:1',
        thermo=(NASA([200.00, 1000.00],
                     [ 2.50000000E+00,  0.00000000E+00,  0.00000000E+00,
                       0.00000000E+00,  0.00000000E+00, -7.45375000E+02,
                       4.37967000E+00]),
                NASA([1000.00, 6000.00],
                     [ 2.50000000E+00,  0.00000000E+00,  0.00000000E+00,
                       0.00000000E+00,  0.00000000E+00, -7.45375000E+02,
                       4.37967000E+00])))

species(name=u'He',
        atoms='He:1',
        thermo=(NASA([200.00, 1000.00],
                     [ 2.50000000E+00,  0.00000000E+00,  0.00000000E+00,
                       0.00000000E+00,  0.00000000E+00, -7.45375000E+02,
                       9.28724000E-01]),
                NASA([1000.00, 6000.00],
                     [ 2.50000000E+00,  0.00000000E+00,  0.00000000E+00,
                       0.00000000E+00,  0.00000000E+00, -7.45375000E+02,
                       9.28724000E-01])))

species(name=u'Ne',
        atoms='Ne:1',
        thermo=(NASA([200.00, 1000.00],
                     [ 2.50000000E+00,  0.00000000E+00,  0.00000000E+00,
                       0.00000000E+00,  0.00000000E+00, -7.45375000E+02,
                       3.35532000E+00]),
                NASA([1000.00, 6000.00],
                     [ 2.50000000E+00,  0.00000000E+00,  0.00000000E+00,
                       0.00000000E+00,  0.00000000E+00, -7.45375000E+02,
                       3.35532000E+00])))

species(name=u'N2',
        atoms='N:2',
        thermo=(NASA([200.00, 1000.00],
                     [ 3.53101000E+00, -1.23661000E-04, -5.02999000E-07,
                       2.43531000E-09, -1.40881000E-12, -1.04698000E+03,
                       2.96747000E+00]),
                NASA([1000.00, 6000.00],
                     [ 2.95258000E+00,  1.39690000E-03, -4.92632000E-07,
                       7.86010000E-11, -4.60755000E-15, -9.23949000E+02,
                       5.87189000E+00])))

species(name=u'C2H4(2)',
        atoms='H:4 C:2',
        thermo=(NASA([100.00, 979.36],
                     [ 3.97471606E+00, -4.75844285E-03,  4.16783770E-05,
                      -4.51392516E-08,  1.54224761E-11,  4.91540746E+03,
                       3.62430844E+00]),
                NASA([979.36, 5000.00],
                     [ 3.55660610E+00,  1.10627464E-02, -4.17019079E-06,
                       7.85586770E-10, -5.70060829E-14,  4.32046489E+03,
                       2.17719479E+00])))

species(name=u'C4H8-1(3)',
        atoms='H:8 C:4',
        thermo=(NASA([100.00, 1007.28],
                     [ 2.58772906E+00,  2.32777969E-02,  1.93412349E-05,
                      -3.55496333E-08,  1.36906009E-11, -1.91872926E+03,
                       1.45750618E+01]),
                NASA([1007.28, 5000.00],
                     [ 7.20517168E+00,  2.36361568E-02, -9.03150028E-06,
                       1.65392666E-09, -1.16019260E-13, -3.79733937E+03,
                      -1.24426257E+01])))

species(name=u'C4H8-2(4)',
        atoms='H:8 C:4',
        thermo=(NASA([100.00, 1157.79],
                     [ 2.51998327E+00,  2.76812799E-02,  9.43783469E-07,
                      -1.25009101E-08,  4.67144666E-12, -3.34374767E+03,
                       1.30195623E+01]),
                NASA([1157.79, 5000.00],
                     [ 6.04225708E+00,  2.60072350E-02, -1.04843374E-05,
                       1.90880922E-09, -1.30600505E-13, -4.86276511E+03,
                      -7.52715109E+00])))

species(name=u'X(1)',
        atoms='X:1',
        thermo=(NASA([100.00, 1554.80],
                     [ 7.10139498E-03, -4.25619522E-05,  8.98533016E-08,
                      -7.80193649E-11,  2.32465471E-14, -8.76101712E-01,
                      -3.11211229E-02]),
                NASA([1554.80, 5000.00],
                     [ 1.60299900E-01, -2.52235409E-04,  1.14181275E-07,
                      -1.21471653E-11,  3.85790025E-16, -7.08100885E+01,
                      -9.09527530E-01])))

species(name=u'HX(5)',
        atoms='H:1 X:1',
        thermo=(NASA([100.00, 952.91],
                     [-3.80965452E-01,  5.47228709E-03,  2.60912778E-06,
                      -9.64961980E-09,  4.63946753E-12, -9.42254356E+03,
                       1.01725550E+00]),
                NASA([952.91, 5000.00],
                     [ 2.80339655E+00, -5.41047017E-04,  4.99507978E-07,
                      -7.54963647E-11,  3.06772366E-15, -1.03632930E+04,
                      -1.59436787E+01])))

species(name=u'C2H3X(37)',
        atoms='H:3 C:2 X:1',
        thermo=(NASA([100.00, 928.62],
                     [ 3.83091018E+00, -8.76381562E-03,  6.97956896E-05,
                      -8.67969174E-08,  3.33218121E-11, -4.92724095E+03,
                      -1.81151753E+01]),
                NASA([928.62, 5000.00],
                     [ 8.78054562E+00,  1.92497720E-03,  8.25825014E-07,
                      -1.63749818E-10,  5.71728318E-15, -7.22664407E+03,
                      -4.90588618E+01])))

species(name=u'CH3X(39)',
        atoms='H:3 C:1 X:1',
        thermo=(NASA([100.00, 848.30],
                     [-1.21090496E+00,  2.92390681E-02, -4.49011079E-05,
                       3.86009808E-08, -1.30361041E-11, -1.26477576E+04,
                       6.80939750E+00]),
                NASA([848.30, 5000.00],
                     [ 1.62290877E+00,  1.12987268E-02, -5.08316908E-06,
                       9.46833581E-10, -6.42885536E-14, -1.29638225E+04,
                      -5.42501059E+00])))

species(name=u'C2H5X(40)',
        atoms='H:5 C:2 X:1',
        thermo=(NASA([100.00, 803.81],
                     [-1.64625424E+00,  3.89626488E-02, -4.31128887E-05,
                       2.97076939E-08, -8.80222915E-12, -1.66314326E+04,
                       9.27323637E+00]),
                NASA([803.81, 5000.00],
                     [ 1.97598112E+00,  2.09382766E-02, -9.47916922E-06,
                       1.81392948E-09, -1.27206354E-13, -1.72137814E+04,
                      -7.41107956E+00])))

species(name=u'C4H9X(64)',
        atoms='H:9 C:4 X:1',
        thermo=(NASA([100.00, 1009.34],
                     [ 2.45382734E+00,  2.40994657E-02,  3.11010256E-05,
                      -4.95699577E-08,  1.85293661E-11, -2.07695628E+04,
                      -3.52847415E+00]),
                NASA([1009.34, 5000.00],
                     [ 7.52084135E+00,  2.82413531E-02, -1.10515535E-05,
                       2.04772333E-09, -1.44617914E-13, -2.30262843E+04,
                      -3.41331625E+01])))

species(name=u'C4H9X(65)',
        atoms='H:9 C:4 X:1',
        thermo=(NASA([100.00, 993.09],
                     [ 2.22649262E+00,  2.86530428E-02,  2.37814781E-05,
                      -4.60601877E-08,  1.82913065E-11, -1.94865479E+04,
                      -3.55141667E+00]),
                NASA([993.09, 5000.00],
                     [ 9.09063018E+00,  2.59568873E-02, -9.83403420E-06,
                       1.80637207E-09, -1.27731480E-13, -2.20802693E+04,
                      -4.28140480E+01])))

species(name=u'C2H2X(70)',
        atoms='H:2 C:2 X:1',
        thermo=(NASA([100.00, 1146.89],
                     [-1.35665997E+00,  2.85338019E-02, -3.11240758E-05,
                       1.70134067E-08, -3.63322671E-12, -1.54029891E+04,
                       3.79543665E+00]),
                NASA([1146.89, 5000.00],
                     [ 4.86807469E+00,  6.82428196E-03, -2.73110334E-06,
                       5.09415334E-10, -3.57467832E-14, -1.68308353E+04,
                      -2.70885611E+01])))

species(name=u'CH2X(75)',
        atoms='H:2 C:1 X:1',
        thermo=(NASA([100.00, 1199.82],
                     [-1.02006594E+00,  2.03778552E-02, -2.17291076E-05,
                       1.15868543E-08, -2.38469979E-12, -1.34072078E+04,
                       2.99160459E+00]),
                NASA([1199.82, 5000.00],
                     [ 3.89285483E+00,  3.99892281E-03, -1.25227942E-06,
                       2.09081361E-10, -1.39642489E-14, -1.45861267E+04,
                      -2.16053707E+01])))

species(name=u'C2H4X(76)',
        atoms='H:4 C:2 X:1',
        thermo=(NASA([100.00, 922.92],
                     [-1.51744559E+00,  3.54364794E-02, -3.81057246E-05,
                       2.35708696E-08, -6.09814448E-12, -1.85156739E+04,
                       5.77183816E+00]),
                NASA([922.92, 5000.00],
                     [ 2.83446173E+00,  1.65755797E-02, -7.45248059E-06,
                       1.42932264E-09, -1.00637720E-13, -1.93189907E+04,
                      -1.48746526E+01])))

species(name=u'C6H13X(77)',
        atoms='H:13 C:6 X:1',
        thermo=(NASA([100.00, 1130.02],
                     [ 1.07508654E+00,  5.48320242E-02, -5.85499030E-06,
                      -1.87602461E-08,  7.94175434E-12, -2.65632436E+04,
                       6.68454494E+00]),
                NASA([1130.02, 5000.00],
                     [ 9.23587213E+00,  4.49494152E-02, -1.79636149E-05,
                       3.26621012E-09, -2.23874450E-13, -2.96210074E+04,
                      -3.90529659E+01])))

species(name=u'C6H13X(78)',
        atoms='H:13 C:6 X:1',
        thermo=(NASA([100.00, 1104.49],
                     [ 9.11736944E-01,  5.71186337E-02, -4.42064989E-06,
                      -2.31827364E-08,  9.89591048E-12, -2.59008411E+04,
                       4.93075254E+00]),
                NASA([1104.49, 5000.00],
                     [ 1.03931710E+01,  4.50091930E-02, -1.81629728E-05,
                       3.33345850E-09, -2.30373441E-13, -2.93510902E+04,
                      -4.78917391E+01])))

species(name=u'C6H13X(79)',
        atoms='H:13 C:6 X:1',
        thermo=(NASA([100.00, 1210.11],
                     [ 1.10826561E+00,  5.37308809E-02, -6.37927534E-07,
                      -2.23970084E-08,  8.32635868E-12, -2.71766934E+04,
                       5.70647071E+00]),
                NASA([1210.11, 5000.00],
                     [ 9.93913033E+00,  4.70609403E-02, -2.02853103E-05,
                       3.80581060E-09, -2.64092883E-13, -3.09628643E+04,
                      -4.53945281E+01])))

species(name=u'C6H13X(85)',
        atoms='H:13 C:6 X:1',
        thermo=(NASA([100.00, 1018.67],
                     [ 8.91751248E-01,  5.48140128E-02,  7.99760365E-06,
                      -4.21289090E-08,  1.81075999E-11, -2.52551820E+04,
                       6.55849864E+00]),
                NASA([1018.67, 5000.00],
                     [ 1.25016332E+01,  3.99739883E-02, -1.54271792E-05,
                       2.83248865E-09, -1.98681535E-13, -2.92158847E+04,
                      -5.74978715E+01])))

species(name=u'C8H17X(86)',
        atoms='H:17 C:8 X:1',
        thermo=(NASA([100.00, 2215.82],
                     [-3.91569674E-01,  8.84112896E-02, -4.73716335E-05,
                       1.20481911E-08, -1.21994622E-12, -3.23868662E+04,
                       1.60346378E+01]),
                NASA([2215.82, 5000.00],
                     [ 2.48245069E+01,  4.28912737E-02, -1.65568896E-05,
                       2.77707115E-09, -1.73933153E-13, -4.35617396E+04,
                      -1.25680870E+02])))

species(name=u'C8H17X(87)',
        atoms='H:17 C:8 X:1',
        thermo=(NASA([100.00, 1066.71],
                     [-6.37326132E-01,  8.79895731E-02, -3.17418260E-05,
                      -1.26094624E-08,  9.00268023E-12, -3.13775005E+04,
                       1.58107526E+01]),
                NASA([1066.71, 5000.00],
                     [ 1.54551473E+01,  5.39725392E-02, -2.09284820E-05,
                       3.76971083E-09, -2.58590696E-13, -3.63085562E+04,
                      -6.98862713E+01])))

species(name=u'C8H17X(88)',
        atoms='H:17 C:8 X:1',
        thermo=(NASA([100.00, 1177.42],
                     [-5.05189618E-01,  8.53669791E-02, -3.06458923E-05,
                      -8.35545947E-09,  5.97473943E-12, -3.26505902E+04,
                       1.61237341E+01]),
                NASA([1177.42, 5000.00],
                     [ 1.50991538E+01,  5.58331492E-02, -2.29313387E-05,
                       4.21233876E-09, -2.89755609E-13, -3.79525617E+04,
                      -6.86176807E+01])))

species(name=u'C4H9X(94)',
        atoms='H:9 C:4 X:1',
        thermo=(NASA([100.00, 971.26],
                     [ 2.18772440E+00,  2.80528478E-02,  2.95105136E-05,
                      -5.52418068E-08,  2.24096997E-11, -2.02637117E+04,
                      -4.38995955E+00]),
                NASA([971.26, 5000.00],
                     [ 1.02820894E+01,  2.36845782E-02, -8.47958205E-06,
                       1.54097166E-09, -1.09822739E-13, -2.32023722E+04,
                      -5.02382526E+01])))

species(name=u'C6H13X(97)',
        atoms='H:13 C:6 X:1',
        thermo=(NASA([100.00, 1140.27],
                     [ 9.41790380E-01,  5.59571281E-02, -1.23930313E-06,
                      -2.54812009E-08,  1.02020039E-11, -2.58818995E+04,
                       5.52625906E+00]),
                NASA([1140.27, 5000.00],
                     [ 1.08625288E+01,  4.53521038E-02, -1.91182014E-05,
                       3.58109265E-09, -2.49788598E-13, -2.97173955E+04,
                      -5.05354255E+01])))

species(name=u'C8H17X(98)',
        atoms='H:17 C:8 X:1',
        thermo=(NASA([100.00, 1458.69],
                     [-5.10312495E-01,  8.75381756E-02, -4.34125974E-05,
                       7.93541404E-09,  5.07211857E-14, -3.26621851E+04,
                       1.61722255E+01]),
                NASA([1458.69, 5000.00],
                     [ 1.64663010E+01,  5.35593264E-02, -2.14017489E-05,
                       3.78530645E-09, -2.50820163E-13, -3.89526630E+04,
                      -7.67249147E+01])))

species(name=u'C8H17X(99)',
        atoms='H:17 C:8 X:1',
        thermo=(NASA([100.00, 1024.30],
                     [-5.52009564E-01,  8.46444369E-02, -1.89552908E-05,
                      -2.82144474E-08,  1.51054334E-11, -3.16613493E+04,
                       1.52223473E+01]),
                NASA([1024.30, 5000.00],
                     [ 1.59413076E+01,  5.28406991E-02, -2.01279009E-05,
                       3.62464385E-09, -2.50186656E-13, -3.67505791E+04,
                      -7.30935368E+01])))

species(name=u'SX(100)',
        atoms='H:17 C:8 X:1',
        thermo=(NASA([100.00, 1100.89],
                     [-4.16879350E-01,  8.20615567E-02, -1.83490181E-05,
                      -2.28307743E-08,  1.13898373E-11, -3.29346791E+04,
                       1.55195713E+01]),
                NASA([1100.89, 5000.00],
                     [ 1.50204769E+01,  5.55771243E-02, -2.26022205E-05,
                       4.17299392E-09, -2.89775646E-13, -3.81277129E+04,
                      -6.85888236E+01])))

species(name=u'C4H9X(107)',
        atoms='H:9 C:4 X:1',
        thermo=(NASA([100.00, 1080.66],
                     [ 2.49980748E+00,  2.56090126E-02,  2.02156117E-05,
                      -3.35382937E-08,  1.17334539E-11, -2.26123864E+04,
                      -5.31057752E+00]),
                NASA([1080.66, 5000.00],
                     [ 5.84130366E+00,  3.13511981E-02, -1.28929697E-05,
                       2.39456635E-09, -1.66872037E-13, -2.43920873E+04,
                      -2.65834022E+01])))

species(name=u'SX(111)',
        atoms='H:13 C:6 X:1',
        thermo=(NASA([100.00, 988.53],
                     [ 9.61248082E-01,  5.13760526E-02,  2.30904223E-05,
                      -6.03793965E-08,  2.52635022E-11, -2.61501845E+04,
                       5.00247206E+00]),
                NASA([988.53, 5000.00],
                     [ 1.29759594E+01,  3.94980648E-02, -1.46333285E-05,
                       2.65799377E-09, -1.86917982E-13, -3.03205820E+04,
                      -6.19022088E+01])))

species(name=u'SX(112)',
        atoms='H:17 C:8 X:1',
        thermo=(NASA([100.00, 1458.69],
                     [-5.10312495E-01,  8.75381756E-02, -4.34125974E-05,
                       7.93541404E-09,  5.07211857E-14, -3.30647603E+04,
                       1.54790783E+01]),
                NASA([1458.69, 5000.00],
                     [ 1.64663010E+01,  5.35593264E-02, -2.14017489E-05,
                       3.78530645E-09, -2.50820163E-13, -3.93552381E+04,
                      -7.74180618E+01])))

species(name=u'SX(113)',
        atoms='H:17 C:8 X:1',
        thermo=(NASA([100.00, 1024.30],
                     [-5.52009564E-01,  8.46444369E-02, -1.89552908E-05,
                      -2.82144474E-08,  1.51054334E-11, -3.20639245E+04,
                       1.45292001E+01]),
                NASA([1024.30, 5000.00],
                     [ 1.59413076E+01,  5.28406991E-02, -2.01279009E-05,
                       3.62464385E-09, -2.50186656E-13, -3.71531542E+04,
                      -7.37866839E+01])))

species(name=u'SX(114)',
        atoms='H:17 C:8 X:1',
        thermo=(NASA([100.00, 1100.89],
                     [-4.16879350E-01,  8.20615567E-02, -1.83490181E-05,
                      -2.28307743E-08,  1.13898373E-11, -3.33372543E+04,
                       1.48264241E+01]),
                NASA([1100.89, 5000.00],
                     [ 1.50204769E+01,  5.55771243E-02, -2.26022205E-05,
                       4.17299392E-09, -2.89775646E-13, -3.85302881E+04,
                      -6.92819708E+01])))

species(name=u'SX(125)',
        atoms='H:13 C:6 X:1',
        thermo=(NASA([100.00, 982.95],
                     [ 1.14109966E+00,  4.96974179E-02,  2.52317077E-05,
                      -5.79902670E-08,  2.35533927E-11, -2.72822705E+04,
                       1.66300733E+00]),
                NASA([982.95, 5000.00],
                     [ 9.77243302E+00,  4.59173125E-02, -1.68318153E-05,
                       2.97988613E-09, -2.04628285E-13, -3.04933116E+04,
                      -4.75321442E+01])))

species(name=u'SX(126)',
        atoms='H:17 C:8 X:1',
        thermo=(NASA([100.00, 1178.99],
                     [-5.41383539E-01,  8.59755309E-02, -3.07453998E-05,
                      -8.63118770E-09,  6.08548459E-12, -3.41096944E+04,
                       1.24697604E+01]),
                NASA([1178.99, 5000.00],
                     [ 1.53091004E+01,  5.60964422E-02, -2.31351998E-05,
                       4.25791964E-09, -2.93182315E-13, -3.95080876E+04,
                      -7.36532517E+01])))

species(name=u'SX(127)',
        atoms='H:17 C:8 X:1',
        thermo=(NASA([100.00, 1007.26],
                     [-6.50204660E-01,  8.35731754E-02, -6.70592560E-06,
                      -4.58972089E-08,  2.22352949E-11, -3.27027273E+04,
                       1.17821014E+01]),
                NASA([1007.26, 5000.00],
                     [ 1.83018323E+01,  5.01000618E-02, -1.90891989E-05,
                       3.48707360E-09, -2.44621887E-13, -3.86405369E+04,
                      -9.03106297E+01])))

species(name=u'SX(128)',
        atoms='H:17 C:8 X:1',
        thermo=(NASA([100.00, 1059.44],
                     [-5.01120632E-01,  8.08626402E-02, -5.83655735E-06,
                      -4.05743169E-08,  1.84186025E-11, -3.39767006E+04,
                       1.20269240E+01]),
                NASA([1059.44, 5000.00],
                     [ 1.70850683E+01,  5.33093647E-02, -2.18240314E-05,
                       4.09489580E-09, -2.89016663E-13, -3.98829783E+04,
                      -8.41200896E+01])))

species(name=u'SX(136)',
        atoms='H:13 C:6 X:1',
        thermo=(NASA([100.00, 1015.42],
                     [ 1.27577367E+00,  4.79482530E-02,  2.36855536E-05,
                      -5.14395872E-08,  1.99116762E-11, -2.85758315E+04,
                       1.95048088E+00]),
                NASA([1015.42, 5000.00],
                     [ 8.17132903E+00,  4.86625915E-02, -1.85508103E-05,
                       3.32729923E-09, -2.28642032E-13, -3.14134265E+04,
                      -3.84990342E+01])))

species(name=u'SX(138)',
        atoms='H:11 C:5 X:1',
        thermo=(NASA([100.00, 980.90],
                     [ 1.74112804E+00,  4.03363685E-02,  1.97489655E-05,
                      -4.39400421E-08,  1.75449537E-11, -2.50860584E+04,
                      -3.51799978E+00]),
                NASA([980.90, 5000.00],
                     [ 7.02886723E+00,  4.08898091E-02, -1.49175831E-05,
                       2.60677211E-09, -1.76654241E-13, -2.71873845E+04,
                      -3.43497779E+01])))

species(name=u'SX(140)',
        atoms='H:17 C:8 X:1',
        thermo=(NASA([100.00, 1058.59],
                     [-7.08114470E-01,  8.58352046E-02, -1.68128717E-05,
                      -3.16047552E-08,  1.58716931E-11, -3.28024556E+04,
                       1.22792814E+01]),
                NASA([1058.59, 5000.00],
                     [ 1.79634677E+01,  5.20779424E-02, -2.11177426E-05,
                       3.94126431E-09, -2.77361501E-13, -3.88172382E+04,
                      -8.86012444E+01])))

species(name=u'SX(153)',
        atoms='H:13 C:6 X:1',
        thermo=(NASA([100.00, 1100.25],
                     [ 1.12731109E+00,  5.42280194E-02, -2.57570360E-06,
                      -2.13115742E-08,  8.76118957E-12, -2.86399708E+04,
                       3.17769747E+00]),
                NASA([1100.25, 5000.00],
                     [ 7.82228735E+00,  4.79428429E-02, -1.86211424E-05,
                       3.32489651E-09, -2.25521479E-13, -3.12060131E+04,
                      -3.47274948E+01])))

species(name=u'SX(157)',
        atoms='H:17 C:8 X:1',
        thermo=(NASA([100.00, 1030.47],
                     [-6.40114123E-01,  8.26929186E-02, -4.72579477E-06,
                      -4.63235748E-08,  2.16079239E-11, -3.26829807E+04,
                       1.17530417E+01]),
                NASA([1030.47, 5000.00],
                     [ 1.85359667E+01,  5.08021219E-02, -2.02352903E-05,
                       3.77705742E-09, -2.67382351E-13, -3.88939367E+04,
                      -9.22964799E+01])))

species(name=u'SX(171)',
        atoms='H:13 C:6 X:1',
        thermo=(NASA([100.00, 945.36],
                     [ 1.14673800E+00,  4.75374449E-02,  3.47407982E-05,
                      -7.39806678E-08,  3.12165130E-11, -2.62697693E+04,
                       4.44347668E+00]),
                NASA([945.36, 5000.00],
                     [ 1.18934736E+01,  3.99389935E-02, -1.32961003E-05,
                       2.27283057E-09, -1.55564798E-13, -2.99940363E+04,
                      -5.57503544E+01])))

species(name=u'SX(174)',
        atoms='H:17 C:8 X:1',
        thermo=(NASA([100.00, 1030.47],
                     [-6.40114123E-01,  8.26929186E-02, -4.72579477E-06,
                      -4.63235748E-08,  2.16079239E-11, -3.22804056E+04,
                       1.21585068E+01]),
                NASA([1030.47, 5000.00],
                     [ 1.85359667E+01,  5.08021219E-02, -2.02352903E-05,
                       3.77705742E-09, -2.67382351E-13, -3.84913615E+04,
                      -9.18910147E+01])))

species(name=u'SX(190)',
        atoms='H:13 C:6 X:1',
        thermo=(NASA([100.00, 1014.61],
                     [ 1.13918001E+00,  5.06468527E-02,  1.48422887E-05,