units(length='cm', time='s', quantity='mol', act_energy='kcal/mol')

ideal_gas(name='gas',
          elements="H D T C Ci O Oi N Ne Ar He Si S Cl X",
          species="""n-heptane   Ar          He          Ne
                     N2          C2H4(2)     C4H8-1(3)   C4H8-2(4)
                     C4H6(7)     C6H8(9)     C3H6(32)    H2(68)
                     C4H6a(79)   C6H8(111)   C8H10(123)  S(194)
                     S(276)      S(279)      S(280)      S(783)
                     C6H10(882)  C8H12(885)  C8H12(886)  S(900)
                     S(903)      C5H8(1020)  S(1023)     S(1024)
                     S(1028)     C5H8(1057)  S(1061)     C5H8(1095)
                     S(1248)     C4H8(1266)  S(1361)     S(3051)
                     S(3829)     S(3830)     S(3833)     S(3844)
                     S(4577)     S(4653)     S(7241)     S(7325)
                     S(19458)    S(32699)    S(62224)    S(72216)
                     S(88951)""",
          reactions='gas-*',
          initial_state=state(temperature=300.0, pressure=OneAtm))

ideal_interface(name='surface1',
                elements="H D T C Ci O Oi N Ne Ar He Si S Cl X",
                species="""X(1)        HX(5)       C2H3X(37)   allylX(38)
                          CH3X(39)    C4H7X(42)   C3H5X(45)   C4H5X(80)
                          C4H5X(81)   C6H9X(97)   C6H9X(98)   C6H9X(107)
                          SX(112)     SX(113)     C6H9X(116)  SX(120)
                          C6H7X(142)  C6H7X(143)  C6H7X(144)  SX(171)
                          SX(186)     SX(189)     SX(206)     SX(210)
                          SX(211)     C6H7X(219)  C7H9X(269)  SX(360)
                          C6H9X(361)  SX(362)     SX(363)     SX(364)
                          SX(365)     SX(366)     SX(368)     SX(369)
                          SX(659)     SX(686)     SX(745)     SX(776)
                          SX(778)     SX(779)     C6H9X(917)  SX(1014)
                          SX(1364)    SX(1367)    SX(1368)    SX(1369)
                          SX(1370)    SX(1371)    SX(1372)    SX(1375)
                          SX(1376)    SX(2983)    SX(3043)    SX(3044)
                          SX(3046)    SX(3148)    SX(3149)    SX(3150)
                          SX(3151)    SX(3153)    SX(3923)    SX(3924)
                          SX(4546)    SX(4617)    SX(4618)    SX(4711)
                          SX(4712)    SX(5223)    SX(5224)    SX(5288)
                          SX(5378)    SX(5470)    SX(5780)    SX(5781)
                          SX(6626)    SX(6627)    SX(6628)    SX(6629)
                          SX(7615)    SX(8344)    SX(8345)    SX(8346)
                          SX(8347)    SX(8348)    SX(8349)    SX(8351)
                          SX(8352)    SX(9920)    SX(9921)    SX(9922)
                          SX(9924)    SX(11936)   SX(11937)   SX(11938)
                          SX(11939)   SX(13129)   SX(13812)   SX(13813)
                          SX(13814)   SX(13815)   SX(15530)   SX(15670)
                          SX(15966)   SX(16119)   SX(16121)   SX(18079)
                          SX(18232)   SX(18555)   SX(18722)   SX(18724)
                          SX(19401)   SX(19402)   SX(23318)   SX(25435)
                          SX(25634)   SX(25833)   SX(26168)   SX(26582)
                          SX(26584)   SX(38543)   SX(38544)   SX(38545)
                          SX(38546)   SX(42477)   SX(42478)   SX(47248)
                          SX(83649)""",
                site_density=2.72e-09,
                phases="gas",
          reactions='surface1-*',
                initial_state=state(temperature=300.0, pressure=OneAtm))

#-------------------------------------------------------------------------------
# Element data
#-------------------------------------------------------------------------------

element(symbol=u'X', atomic_mass=195.083)
element(symbol=u'Ci', atomic_mass=13.003)
element(symbol=u'D', atomic_mass=2.014)
element(symbol=u'Oi', atomic_mass=18.0)
element(symbol=u'T', atomic_mass=3.016)
#-------------------------------------------------------------------------------
# Species data
#-------------------------------------------------------------------------------

species(name=u'n-heptane',
        atoms='H:16 C:7',
        thermo=(NASA([100.00, 1262.73],
                     [-2.91681405E-03,  7.69373649E-02, -3.48025563E-05,
                       1.86095180E-09,  2.01573617E-12, -2.57829342E+04,
                       3.00312148E+01]),
                NASA([1262.73, 5000.00],
                     [ 1.38377915E+01,  4.85945016E-02, -1.95474548E-05,
                       3.52837178E-09, -2.39064676E-13, -3.05141556E+04,
                      -4.48642836E+01])))

species(name=u'Ar',
        atoms='Ar:1',
        thermo=(NASA([200.00, 1000.00],
                     [ 2.50000000E+00,  0.00000000E+00,  0.00000000E+00,
                       0.00000000E+00,  0.00000000E+00, -7.45375000E+02,
                       4.37967000E+00]),
                NASA([1000.00, 6000.00],
                     [ 2.50000000E+00,  0.00000000E+00,  0.00000000E+00,
                       0.00000000E+00,  0.00000000E+00, -7.45375000E+02,
                       4.37967000E+00])))

species(name=u'He',
        atoms='He:1',
        thermo=(NASA([200.00, 1000.00],
                     [ 2.50000000E+00,  0.00000000E+00,  0.00000000E+00,
                       0.00000000E+00,  0.00000000E+00, -7.45375000E+02,
                       9.28724000E-01]),
                NASA([1000.00, 6000.00],
                     [ 2.50000000E+00,  0.00000000E+00,  0.00000000E+00,
                       0.00000000E+00,  0.00000000E+00, -7.45375000E+02,
                       9.28724000E-01])))

species(name=u'Ne',
        atoms='Ne:1',
        thermo=(NASA([200.00, 1000.00],
                     [ 2.50000000E+00,  0.00000000E+00,  0.00000000E+00,
                       0.00000000E+00,  0.00000000E+00, -7.45375000E+02,
                       3.35532000E+00]),
                NASA([1000.00, 6000.00],
                     [ 2.50000000E+00,  0.00000000E+00,  0.00000000E+00,
                       0.00000000E+00,  0.00000000E+00, -7.45375000E+02,
                       3.35532000E+00])))

species(name=u'N2',
        atoms='N:2',
        thermo=(NASA([200.00, 1000.00],
                     [ 3.53101000E+00, -1.23661000E-04, -5.02999000E-07,
                       2.43531000E-09, -1.40881000E-12, -1.04698000E+03,
                       2.96747000E+00]),
                NASA([1000.00, 6000.00],
                     [ 2.95258000E+00,  1.39690000E-03, -4.92632000E-07,
                       7.86010000E-11, -4.60755000E-15, -9.23949000E+02,
                       5.87189000E+00])))

species(name=u'C2H4(2)',
        atoms='H:4 C:2',
        thermo=(NASA([100.00, 979.36],
                     [ 3.97471606E+00, -4.75844285E-03,  4.16783770E-05,
                      -4.51392516E-08,  1.54224761E-11,  4.91540746E+03,
                       3.62430844E+00]),
                NASA([979.36, 5000.00],
                     [ 3.55660610E+00,  1.10627464E-02, -4.17019079E-06,
                       7.85586770E-10, -5.70060829E-14,  4.32046489E+03,
                       2.17719479E+00])))

species(name=u'C4H8-1(3)',
        atoms='H:8 C:4',
        thermo=(NASA([100.00, 1007.28],
                     [ 2.58772906E+00,  2.32777969E-02,  1.93412349E-05,
                      -3.55496333E-08,  1.36906009E-11, -1.91872926E+03,
                       1.45750618E+01]),
                NASA([1007.28, 5000.00],
                     [ 7.20517168E+00,  2.36361568E-02, -9.03150028E-06,
                       1.65392666E-09, -1.16019260E-13, -3.79733937E+03,
                      -1.24426257E+01])))

species(name=u'C4H8-2(4)',
        atoms='H:8 C:4',
        thermo=(NASA([100.00, 1157.79],
                     [ 2.51998327E+00,  2.76812799E-02,  9.43783469E-07,
                      -1.25009101E-08,  4.67144666E-12, -3.34374767E+03,
                       1.30195623E+01]),
                NASA([1157.79, 5000.00],
                     [ 6.04225708E+00,  2.60072350E-02, -1.04843374E-05,
                       1.90880922E-09, -1.30600505E-13, -4.86276511E+03,
                      -7.52715109E+00])))

species(name=u'C4H6(7)',
        atoms='H:6 C:4',
        thermo=(NASA([100.00, 946.05],
                     [ 2.80599310E+00,  1.02584471E-02,  6.17260255E-05,
                      -9.01642687E-08,  3.59116961E-11,  1.16584972E+04,
                       1.20621434E+01]),
                NASA([946.05, 5000.00],
                     [ 1.24693720E+01,  1.00553901E-02, -2.41206872E-06,
                       4.57077303E-10, -3.93160571E-14,  8.01077795E+03,
                      -4.36374720E+01])))

species(name=u'C6H8(9)',
        atoms='H:8 C:6',
        thermo=(NASA([100.00, 941.22],
                     [ 1.38427980E+00,  4.14411503E-02,  1.94287417E-05,
                      -6.16688700E-08,  2.86503633E-11,  1.76317461E+04,
                       1.93257509E+01]),
                NASA([941.22, 5000.00],
                     [ 1.69619680E+01,  1.57221707E-02, -4.10118367E-06,
                       6.95736344E-10, -5.26521484E-14,  1.29061672E+04,
                      -6.44097553E+01])))

species(name=u'C3H6(32)',
        atoms='H:6 C:3',
        thermo=(NASA([100.00, 983.75],
                     [ 3.31912102E+00,  8.17958674E-03,  3.34736123E-05,
                      -4.36193684E-08,  1.58213364E-11,  7.49325328E+02,
                       9.54025058E+00]),
                NASA([983.75, 5000.00],
                     [ 5.36755173E+00,  1.70743019E-02, -6.35107626E-06,
                       1.16619529E-09, -8.27620279E-14, -4.87138326E+02,
                      -4.54467529E+00])))

species(name=u'H2(68)',
        atoms='H:2',
        thermo=(NASA([100.00, 1959.08],
                     [ 3.43536412E+00,  2.12710353E-04, -2.78625043E-07,
                       3.40267167E-10, -7.76031998E-14, -1.03135984E+03,
                      -3.90841732E+00]),
                NASA([1959.08, 5000.00],
                     [ 2.78816583E+00,  5.87640942E-04,  1.59010417E-07,
                      -5.52739026E-11,  4.34310984E-15, -5.96144270E+02,
                       1.12732655E-01])))

species(name=u'C4H6a(79)',
        atoms='H:6 C:4',
        thermo=(NASA([100.00, 950.38],
                     [ 3.41327601E+00, -4.60830638E-03,  9.57205603E-05,
                      -1.18800574E-07,  4.44495312E-11,  1.74039828E+04,
                       1.01517556E+01]),
                NASA([950.38, 5000.00],
                     [ 9.72156091E+00,  1.36879055E-02, -3.93842260E-06,
                       7.58710118E-10, -6.16013131E-14,  1.41795804E+04,
                      -3.06164436E+01])))

species(name=u'C6H8(111)',
        atoms='H:8 C:6',
        thermo=(NASA([100.00, 972.94],
                     [ 1.82686070E+00,  3.47046353E-02,  2.41070171E-05,
                      -5.44847920E-08,  2.29388832E-11,  1.99100661E+04,
                       1.81393315E+01]),
                NASA([972.94, 5000.00],
                     [ 1.21686202E+01,  2.40472785E-02, -8.58151834E-06,
                       1.57034031E-09, -1.12795334E-13,  1.63897115E+04,
                      -3.92195169E+01])))

species(name=u'C8H10(123)',
        atoms='H:10 C:8',
        thermo=(NASA([100.00, 941.38],
                     [ 8.64508879E-02,  6.59507123E-02,  1.49007776E-06,
                      -6.06862449E-08,  3.13845046E-11,  2.39088929E+04,
                       2.66192822E+01]),
                NASA([941.38, 5000.00],
                     [ 2.28417755E+01,  1.96704891E-02, -5.08803462E-06,
                       8.53682038E-10, -6.42382395E-14,  1.73909786E+04,
                      -9.36509497E+01])))

species(name=u'S(194)',
        atoms='H:16 C:12',
        thermo=(NASA([100.00, 985.43],
                     [-1.88304682E+00,  1.07042194E-01, -2.70554103E-05,
                      -4.30549514E-08,  2.47781880E-11,  4.00783494E+04,
                       4.74620913E+01]),
                NASA([985.43, 5000.00],
                     [ 2.44922294E+01,  5.06805346E-02, -1.84366585E-05,
                       3.32433721E-09, -2.33631810E-13,  3.24185269E+04,
                      -9.18863874E+01])))

species(name=u'S(276)',
        atoms='H:14 C:10',
        thermo=(NASA([100.00, 988.70],
                     [-1.28102885E+00,  9.73401935E-02, -3.96908570E-05,
                      -2.28883979E-08,  1.70599250E-11,  2.01333918E+04,
                       3.80613736E+01]),
                NASA([988.70, 5000.00],
                     [ 2.35618068E+01,  3.86218834E-02, -1.40063814E-05,
                       2.54246809E-09, -1.80004061E-13,  1.31784885E+04,
                      -9.18377566E+01])))

species(name=u'S(279)',
        atoms='H:16 C:12',
        thermo=(NASA([100.00, 977.34],
                     [-2.74599726E+00,  1.25928887E-01, -6.64324947E-05,
                      -1.47539612E-08,  1.77495764E-11,  2.62279978E+04,
                       4.47490324E+01]),
                NASA([977.34, 5000.00],
                     [ 3.01371331E+01,  4.17345099E-02, -1.45468655E-05,
                       2.60501155E-09, -1.84397085E-13,  1.73938944E+04,
                      -1.25450857E+02])))

species(name=u'S(280)',
        atoms='H:16 C:12',
        thermo=(NASA([100.00, 979.75],
                     [-2.57869009E+00,  1.21854019E-01, -5.76779173E-05,
                      -2.17861304E-08,  1.97140254E-11,  2.64105279E+04,
                       4.53539303E+01]),
                NASA([979.75, 5000.00],
                     [ 2.94124910E+01,  4.26177237E-02, -1.50198177E-05,
                       2.70655281E-09, -1.92090584E-13,  1.76761784E+04,
                      -1.20913775E+02])))

species(name=u'S(783)',
        atoms='H:14 C:10',
        thermo=(NASA([100.00, 988.70],
                     [-1.28102885E+00,  9.73401935E-02, -3.96908570E-05,
                      -2.28883979E-08,  1.70599250E-11,  2.01333918E+04,
                       3.80613736E+01]),
                NASA([988.70, 5000.00],
                     [ 2.35618068E+01,  3.86218834E-02, -1.40063814E-05,
                       2.54246809E-09, -1.80004061E-13,  1.31784885E+04,
                      -9.18377566E+01])))

species(name=u'C6H10(882)',
        atoms='H:10 C:6',
        thermo=(NASA([100.00, 1036.89],
                     [ 1.50874221E+00,  4.27939676E-02,  1.00407781E-05,
                      -3.76644958E-08,  1.56320088E-11,  7.74480595E+03,
                       2.33493905E+01]),
                NASA([1036.89, 5000.00],
                     [ 1.16601041E+01,  3.10397815E-02, -1.26024374E-05,
                       2.38495409E-09, -1.70150727E-13,  4.16633351E+03,
                      -3.30972272E+01])))

species(name=u'C8H12(885)',
        atoms='H:12 C:8',
        thermo=(NASA([100.00, 1002.94],
                     [ 1.69489980E-02,  7.28189377E-02, -2.16585698E-05,
                      -2.40807783E-08,  1.44597041E-11,  1.38562447E+04,
                       3.07679077E+01]),
                NASA([1002.94, 5000.00],
                     [ 1.77276883E+01,  3.45993801E-02, -1.29781828E-05,
                       2.37500136E-09, -1.67643536E-13,  8.67334638E+03,
                      -6.28559377E+01])))

species(name=u'C8H12(886)',
        atoms='H:12 C:8',
        thermo=(NASA([100.00, 1005.34],
                     [ 1.86706594E-01,  6.87128585E-02, -1.27834364E-05,
                      -3.12867866E-08,  1.65065107E-11,  1.40386710E+04,
                       3.13641644E+01]),
                NASA([1005.34, 5000.00],
                     [ 1.70020327E+01,  3.54850644E-02, -1.34528637E-05,
                       2.47700296E-09, -1.75378433E-13,  8.95581482E+03,
                      -5.83136097E+01])))

species(name=u'S(900)',
        atoms='H:20 C:14',
        thermo=(NASA([100.00, 1051.56],
                     [-4.01912938E+00,  1.54031490E-01, -1.01216386E-04,
                       1.83798914E-08,  4.73038826E-12,  2.26382177E+04,
                       5.56756523E+01]),
                NASA([1051.56, 5000.00],
                     [ 3.08580906E+01,  6.03731961E-02, -2.32639132E-05,
                       4.23870827E-09, -2.95028560E-13,  1.31463042E+04,
                      -1.24595570E+02])))

species(name=u'S(903)',
        atoms='H:20 C:14',
        thermo=(NASA([100.00, 1051.56],
                     [-4.01912938E+00,  1.54031490E-01, -1.01216386E-04,
                       1.83798914E-08,  4.73038826E-12,  2.26382177E+04,
                       5.63687994E+01]),
                NASA([1051.56, 5000.00],
                     [ 3.08580906E+01,  6.03731961E-02, -2.32639132E-05,
                       4.23870827E-09, -2.95028560E-13,  1.31463042E+04,
                      -1.23902423E+02])))

species(name=u'C5H8(1020)',
        atoms='H:8 C:5',
        thermo=(NASA([100.00, 1945.28],
                     [ 1.54057150E+00,  4.70674891E-02, -3.00891500E-05,
                       9.08792775E-09, -1.08388618E-12,  1.04128608E+04,
                       1.86285770E+01]),
                NASA([1945.28, 5000.00],
                     [ 1.57976301E+01,  1.77513582E-02, -7.48362302E-06,
                       1.34081097E-09, -8.82587923E-14,  4.86605187E+03,
                      -5.96402586E+01])))

species(name=u'S(1023)',
        atoms='H:10 C:7',
        thermo=(NASA([100.00, 977.01],
                     [ 7.59861149E-01,  5.67805793E-02, -3.27402391E-06,
                      -3.81869349E-08,  1.92141927E-11,  1.68422297E+04,
                       2.58833892E+01]),
                NASA([977.01, 5000.00],
                     [ 1.63899118E+01,  2.68219043E-02, -9.52885818E-06,
                       1.73427451E-09, -1.23996710E-13,  1.21637943E+04,
                      -5.74716086E+01])))

species(name=u'S(1024)',
        atoms='H:10 C:7',
        thermo=(NASA([100.00, 980.34],
                     [ 9.28266736E-01,  5.26924166E-02,  5.52850145E-06,
                      -4.52830783E-08,  2.12066150E-11,  1.70247128E+04,
                       2.64843713E+01]),
                NASA([980.34, 5000.00],
                     [ 1.56612121E+01,  2.77120620E-02, -1.00058329E-05,
                       1.83676905E-09, -1.31769467E-13,  1.24477699E+04,
                      -5.29117091E+01])))

species(name=u'S(1028)',
        atoms='H:12 C:9',
        thermo=(NASA([100.00, 969.36],
                     [-5.39648730E-01,  8.13140197E-02, -2.13174816E-05,
                      -3.70330247E-08,  2.18574221E-11,  2.31194465E+04,
                       3.31827027E+01]),
                NASA([969.36, 5000.00],
                     [ 2.22604972E+01,  3.07848205E-02, -1.05236823E-05,
                       1.89402698E-09, -1.35727895E-13,  1.66528238E+04,
                      -8.66602332E+01])))

species(name=u'C5H8(1057)',
        atoms='H:8 C:5',
        thermo=(NASA([100.00, 1004.86],
                     [ 1.98273955E+00,  3.49998332E-02,  6.98515281E-06,
                      -3.05031334E-08,  1.32246652E-11,  6.96521034E+03,
                       1.60818191E+01]),
                NASA([1004.86, 5000.00],
                     [ 1.01246420E+01,  2.42323877E-02, -9.24886971E-06,
                       1.70115950E-09, -1.20059732E-13,  4.23624320E+03,
                      -2.86745770E+01])))

species(name=u'S(1061)',
        atoms='H:10 C:7',
        thermo=(NASA([100.00, 960.58],
                     [ 5.40181259E-01,  6.14551349E-02, -1.12030877E-05,
                      -3.44223146E-08,  1.91302393E-11,  1.31395193E+04,
                       2.36489181E+01]),
                NASA([960.58, 5000.00],
                     [ 1.78943603E+01,  2.43013009E-02, -8.01425042E-06,
                       1.41741320E-09, -1.01048701E-13,  8.18561381E+03,
                      -6.78088657E+01])))

species(name=u'C5H8(1095)',
        atoms='H:8 C:5',
        thermo=(NASA([100.00, 1049.25],
                     [ 2.01062155E+00,  3.15407187E-02,  2.07789480E-05,
                      -4.44088985E-08,  1.72419112E-11,  7.01383967E+03,
                       1.65768346E+01]),
                NASA([1049.25, 5000.00],
                     [ 1.14809937E+01,  2.45641673E-02, -1.08867259E-05,
                       2.16707025E-09, -1.59145781E-13,  3.42314914E+03,
                      -3.72078866E+01])))

species(name=u'S(1248)',
        atoms='H:10 C:7',
        thermo=(NASA([100.00, 960.58],
                     [ 5.40181259E-01,  6.14551349E-02, -1.12030877E-05,
                      -3.44223146E-08,  1.91302393E-11,  1.31395193E+04,
                       2.36489181E+01]),
                NASA([960.58, 5000.00],
                     [ 1.78943603E+01,  2.43013009E-02, -8.01425042E-06,
                       1.41741320E-09, -1.01048701E-13,  8.18561381E+03,
                      -6.78088657E+01])))

species(name=u'C4H8(1266)',
        atoms='H:8 C:4',
        thermo=(NASA([100.00, 1061.33],
                     [ 2.52504770E+00,  2.64752782E-02,  7.08359238E-06,
                      -2.07731462E-08,  8.00430055E-12, -4.02607130E+03,
                       1.28857274E+01]),
                NASA([1061.33, 5000.00],
                     [ 6.48672669E+00,  2.49943921E-02, -9.83283171E-06,
                       1.79343299E-09, -1.24008235E-13, -5.62452310E+03,
                      -1.00316397E+01])))

species(name=u'S(1361)',
        atoms='H:16 C:12',
        thermo=(NASA([100.00, 988.05],
                     [-9.90806108E-01,  7.49448702E-02,  7.30737284E-05,
                      -1.45589855E-07,  5.94742226E-11,  3.52111431E+04,
                       3.82243880E+01]),
                NASA([988.05, 5000.00],
                     [ 2.57483977E+01,  5.13980675E-02, -1.97706411E-05,
                       3.81945040E-09, -2.83263696E-13,  2.57926343E+04,
                      -1.11378232E+02])))

species(name=u'S(3051)',
        atoms='H:12 C:9',
        thermo=(NASA([100.00, 969.36],
                     [-5.39648730E-01,  8.13140197E-02, -2.13174816E-05,
                      -3.70330247E-08,  2.18574221E-11,  2.31194465E+04,
                       3.31827027E+01]),
                NASA([969.36, 5000.00],
                     [ 2.22604972E+01,  3.07848205E-02, -1.05236823E-05,
                       1.89402698E-09, -1.35727895E-13,  1.66528238E+04,
                      -8.66602332E+01])))

species(name=u'S(3829)',
        atoms='H:14 C:10',
        thermo=(NASA([100.00, 986.06],
                     [-1.44909215E+00,  1.01424899E-01, -4.84844562E-05,
                      -1.57983685E-08,  1.50673204E-11,  1.99508936E+04,
                       3.67659825E+01]),
                NASA([986.06, 5000.00],
                     [ 2.42859453E+01,  3.77392366E-02, -1.35336379E-05,
                       2.44095589E-09, -1.72311717E-13,  1.28965094E+04,
                      -9.70649724E+01])))

species(name=u'S(3830)',
        atoms='H:14 C:10',
        thermo=(NASA([100.00, 988.70],
                     [-1.28102885E+00,  9.73401935E-02, -3.96908570E-05,
                      -2.28883979E-08,  1.70599250E-11,  2.01333918E+04,
                       3.80613736E+01]),
                NASA([988.70, 5000.00],
                     [ 2.35618068E+01,  3.86218834E-02, -1.40063814E-05,
                       2.54246809E-09, -1.80004061E-13,  1.31784885E+04,
                      -9.18377566E+01])))

species(name=u'S(3833)',
        atoms='H:16 C:12',
        thermo=(NASA([100.00, 977.34],
                     [-2.74599726E+00,  1.25928887E-01, -6.64324947E-05,
                      -1.47539612E-08,  1.77495764E-11,  2.62279978E+04,
                       4.47490324E+01]),
                NASA([977.34, 5000.00],
                     [ 3.01371331E+01,  4.17345099E-02, -1.45468655E-05,
                       2.60501155E-09, -1.84397085E-13,  1.73938944E+04,
                      -1.25450857E+02])))

species(name=u'S(3844)',
        atoms='H:22 C:16',
        thermo=(NASA([100.00, 1026.50],
                     [-5.47242659E+00,  1.82509972E-01, -1.27714530E-04,
                       2.64276197E-08,  5.34707191E-12,  2.87322966E+04,
                       6.30129068E+01]),
                NASA([1026.50, 5000.00],
                     [ 3.72343309E+01,  6.38083452E-02, -2.39838940E-05,
                       4.34254293E-09, -3.02777828E-13,  1.74507074E+04,
                      -1.56384465E+02])))

species(name=u'S(4577)',
        atoms='H:12 C:8',
        thermo=(NASA([100.00, 1016.52],
                     [-1.10429280E-01,  7.70814645E-02, -3.47833140E-05,
                      -1.00302869E-08,  9.42640217E-12,  1.21750142E+04,
                       2.97645889E+01]),
                NASA([1016.52, 5000.00],
                     [ 1.75623558E+01,  3.50022757E-02, -1.32158186E-05,
                       2.40320183E-09, -1.68059077E-13,  7.16317806E+03,
                      -6.27651255E+01])))

species(name=u'S(4653)',
        atoms='H:12 C:8',
        thermo=(NASA([100.00, 1041.92],
                     [ 2.78516759E-01,  6.82812771E-02, -1.77791948E-05,
                      -2.14741003E-08,  1.18631528E-11,  1.60601911E+04,
                       3.19054899E+01]),
                NASA([1041.92, 5000.00],
                     [ 1.54658804E+01,  3.81932402E-02, -1.50857685E-05,
                       2.79470049E-09, -1.96523375E-13,  1.13637523E+04,
                      -4.93384789E+01])))

species(name=u'S(7241)',
        atoms='H:12 C:9',
        thermo=(NASA([100.00, 972.26],
                     [-3.72013350E-01,  7.72358616E-02, -1.25546021E-05,
                      -4.40703610E-08,  2.38211761E-11,  2.33019622E+04,
                       3.30932424E+01]),
                NASA([972.26, 5000.00],
                     [ 2.15314502E+01,  3.16753066E-02, -1.10007392E-05,
                       1.99652253E-09, -1.43499594E-13,  1.69370290E+04,
                      -8.27913663E+01])))

species(name=u'S(7325)',
        atoms='H:14 C:10',
        thermo=(NASA([100.00, 991.16],
                     [-1.11264301E+00,  9.32514215E-02, -3.08817496E-05,
                      -3.00004874E-08,  1.90628454E-11,  2.03158764E+04,
                       3.79693303E+01]),
                NASA([991.16, 5000.00],
                     [ 2.28373136E+01,  3.95052132E-02, -1.44795511E-05,
                       2.64408656E-09, -1.87705563E-13,  1.34605911E+04,
                      -8.79948867E+01])))

species(name=u'S(19458)',
        atoms='H:16 C:12',
        thermo=(NASA([100.00, 983.18],
                     [-2.05097756E+00,  1.11125066E-01, -3.58412237E-05,
                      -3.59772249E-08,  2.27919017E-11,  3.98958457E+04,
                       4.68593887E+01]),
                NASA([983.18, 5000.00],
                     [ 2.52169911E+01,  4.97969231E-02, -1.79633975E-05,
                       3.22270937E-09, -2.25930287E-13,  3.21362552E+04,
                      -9.64240230E+01])))

species(name=u'S(32699)',
        atoms='H:14 C:10',
        thermo=(NASA([100.00, 1064.04],
                     [-6.60643484E-01,  8.69906580E-02, -3.11998499E-05,
                      -1.56232936E-08,  1.05247239E-11,  2.12729883E+04,
                       3.70353931E+01]),
                NASA([1064.04, 5000.00],
                     [ 1.76790234E+01,  4.82596725E-02, -1.91910232E-05,
                       3.53767595E-09, -2.46925866E-13,  1.56598495E+04,
                      -6.06181517E+01])))

species(name=u'S(62224)',
        atoms='H:20 C:14',
        thermo=(NASA([100.00, 1241.84],
                     [-3.55292706E+00,  1.45236075E-01, -9.69025342E-05,
                       2.92400088E-08, -2.55629882E-12,  2.37848676E+04,
                       5.59133297E+01]),
                NASA([1241.84, 5000.00],
                     [ 2.74005290E+01,  6.61841880E-02, -2.63598951E-05,
                       4.76042574E-09, -3.23893945E-13,  1.45047367E+04,
                      -1.06534536E+02])))

species(name=u'S(72216)',
        atoms='H:16 C:12',
        thermo=(NASA([100.00, 1032.79],
                     [-2.12813202E+00,  1.15641295E-01, -5.83207356E-05,
                      -6.74201695E-09,  1.07760889E-11,  2.73676739E+04,
                       4.37300656E+01]),
                NASA([1032.79, 5000.00],
                     [ 2.40911763E+01,  5.16316513E-02, -1.98737459E-05,
                       3.63257134E-09, -2.53925294E-13,  1.99498701E+04,
                      -9.33010532E+01])))

species(name=u'S(88951)',
        atoms='H:22 C:16',
        thermo=(NASA([100.00, 1011.93],
                     [-3.66234734E+00,  1.30871406E-01,  1.41048269E-05,
                      -1.07423321E-07,  4.83576731E-11,  3.75369572E+04,
                       5.64479664E+01]),
                NASA([1011.93, 5000.00],
                     [ 3.26085357E+01,  7.38724802E-02, -2.94376357E-05,
                       5.61112358E-09, -4.06123831E-13,  2.57738390E+04,
                      -1.40819460E+02])))

species(name=u'X(1)',
        atoms='X:1',
        thermo=(NASA([100.00, 1554.80],
                     [ 7.10139498E-03, -4.25619522E-05,  8.98533016E-08,
                      -7.80193649E-11,  2.32465471E-14, -8.76101712E-01,
                      -3.11211229E-02]),
                NASA([1554.80, 5000.00],
                     [ 1.60299900E-01, -2.52235409E-04,  1.14181275E-07,
                      -1.21471653E-11,  3.85790025E-16, -7.08100885E+01,
                      -9.09527530E-01])))

species(name=u'HX(5)',
        atoms='H:1 X:1',
        thermo=(NASA([100.00, 952.91],
                     [-3.80965452E-01,  5.47228709E-03,  2.60912778E-06,
                      -9.64961980E-09,  4.63946753E-12,  5.08308927E+03,
                       1.01725550E+00]),
                NASA([952.91, 5000.00],
                     [ 2.80339655E+00, -5.41047017E-04,  4.99507978E-07,