units(length='cm', time='s', quantity='mol', act_energy='kcal/mol')

ideal_gas(name='gas',
          elements="H D T C Ci O Oi N Ne Ar He Si S Cl X",
          species="""n-heptane   Ar          He          Ne
                     N2          C2H4(2)     C4H8-1(3)   C4H8-2(4)
                     C4H6(7)     C3H6(24)    H2(47)      C6H10k(76)
                     C6H10z(88)  C4H8(124)   C6H10(125)  C8H12(142)
                     C7H12(202)  C5H8c(212)  C5H8g(229)  CH4(282)
                     C5H10(284)  C5H10(285)  C5H10(286)  C2H6(289)
                     C6H12(294)  C6H12(298)  C3H8(301)   C4H10(302)
                     C7H14(393)  C7H14(394)  C7H14(395)  C7H14(397)
                     C7H12(398)  C5H12(403)  C6H14(408)  C4H10(430)
                     C5H12(431)  C6H14(436)  C8H14(508)  C8H14(739)
                     C9H16(744)  S(958)      S(961)      S(1073)
                     S(1761)     S(1786)     S(3497)     S(3540)
                     S(4350)     S(6435)     S(6881)     S(6889)
                     S(6992)     S(7008)     S(7013)     S(7014)
                     S(7156)     S(7318)     S(7457)     S(7549)
                     S(7550)     S(7551)     S(7554)     S(7570)
                     S(7642)     S(7646)     S(7680)     S(7778)
                     S(7783)     S(7888)     S(7891)     S(7897)
                     S(7904)     S(7905)     S(7906)     S(7907)
                     S(7908)     S(8019)     S(8039)     S(8061)
                     S(8062)     S(8063)     S(8118)     S(8119)
                     S(8195)     S(8200)     S(8204)     S(8300)
                     S(8313)     S(8348)     S(8352)     S(8356)
                     S(8404)     S(9029)     S(9115)""",
          reactions='gas-*',
          initial_state=state(temperature=300.0, pressure=OneAtm))

ideal_interface(name='surface1',
                elements="H D T C Ci O Oi N Ne Ar He Si S Cl X",
                species="""X(1)        HX(5)       C2H3X(27)   allylX(28)
                          CH3X(29)    C2H5X(30)   C4H7X(31)   C4H7X(32)
                          C4H7X(33)   C4H7X(34)   C3H5X(35)   C4H9X(44)
                          C4H9X(45)   C6H11X(50)  C6H11X(51)  C4H5X(56)
                          C4H5X(57)   C6H9X(65)   C6H9X(66)   C6H11X(72)
                          C4H7X(95)   C8H15X(97)  C8H15X(98)  C3H5X(118)
                          C6H9X(135)  SX(136)     SX(137)     C6H9X(164)
                          C6H9X(165)  C5H9X(191)  SX(197)     C5H9X(208)
                          SX(209)     SX(210)     SX(213)     SX(214)
                          C3H7X(250)  C3H7X(251)  C5H9X(252)  C5H9X(253)
                          SX(279)     SX(280)     C5H9X(283)  C4H9X(288)
                          SX(290)     SX(291)     SX(293)     SX(300)
                          C5H9X(347)  C5H9X(348)  SX(353)     SX(355)
                          SX(382)     SX(383)     SX(384)     SX(390)
                          SX(402)     SX(406)     SX(407)     SX(410)
                          C6H9X(485)  C5H7X(486)  C6H9X(518)  C6H9X(555)
                          C6H9X(556)  C6H9X(557)  C5H7X(661)  SX(693)
                          C6H9X(716)  SX(718)     C6H9X(757)  C6H9X(758)
                          SX(803)     SX(806)     SX(938)     C6H9X(991)
                          SX(1134)    SX(1168)    SX(1169)    SX(1208)
                          SX(1270)    SX(1386)    SX(1388)    SX(1401)
                          SX(1402)    SX(1403)    SX(1460)    SX(1461)
                          SX(1462)    SX(1463)    SX(1718)    SX(1729)
                          SX(2107)    SX(2108)    SX(2109)    SX(2111)
                          SX(2113)    SX(2159)    SX(2226)    SX(2229)
                          SX(2286)    SX(2311)    SX(2348)    SX(2388)
                          SX(2389)    SX(2426)    SX(2427)    SX(2428)
                          SX(2559)    SX(2560)    SX(2600)    SX(2738)
                          SX(2739)    SX(3104)    SX(3109)    SX(3118)
                          SX(3119)    SX(3166)    SX(3169)    SX(3191)
                          SX(3213)    SX(3357)    SX(3475)    SX(3476)
                          SX(3656)    SX(3812)    SX(3882)    SX(4222)
                          SX(4287)    SX(4288)    SX(4289)    SX(4290)
                          SX(4328)    SX(4329)    SX(4446)    SX(4448)
                          SX(4510)    SX(5006)    SX(5007)    SX(5008)
                          SX(5009)    SX(5010)    SX(5093)    SX(5445)
                          SX(6541)    SX(6565)    SX(6566)    SX(6633)
                          SX(6634)    SX(6860)    SX(6877)    SX(6878)
                          SX(6879)    SX(6884)    SX(6885)    SX(6888)
                          SX(6994)    SX(7158)    SX(7159)    SX(7160)
                          SX(7162)    SX(7165)    SX(7166)    SX(7167)
                          SX(7169)    SX(7352)    SX(7443)    SX(7452)
                          SX(7453)    SX(7462)    SX(7465)    SX(7466)
                          SX(7552)    SX(7553)    SX(7555)    SX(7556)
                          SX(7557)    SX(7558)    SX(7648)    SX(7650)
                          SX(7652)    SX(7654)    SX(7656)    SX(7657)
                          SX(7659)    SX(7793)    SX(7797)    SX(7874)
                          SX(7900)    SX(7901)    SX(7910)    SX(7914)
                          SX(7915)    SX(8026)    SX(8034)    SX(8068)
                          SX(8076)    SX(8079)    SX(8209)    SX(8212)
                          SX(8215)    SX(8216)    SX(8221)    SX(8589)
                          SX(8592)    SX(8593)    SX(8804)    SX(9000)
                          SX(9006)    SX(9008)    SX(9016)    SX(9067)
                          SX(9072)    SX(9087)""",
                site_density=2.72e-09,
                phases="gas",
          reactions='surface1-*',
                initial_state=state(temperature=300.0, pressure=OneAtm))

#-------------------------------------------------------------------------------
# Element data
#-------------------------------------------------------------------------------

element(symbol=u'X', atomic_mass=195.083)
element(symbol=u'Ci', atomic_mass=13.003)
element(symbol=u'D', atomic_mass=2.014)
element(symbol=u'Oi', atomic_mass=18.0)
element(symbol=u'T', atomic_mass=3.016)
#-------------------------------------------------------------------------------
# Species data
#-------------------------------------------------------------------------------

species(name=u'n-heptane',
        atoms='H:16 C:7',
        thermo=(NASA([100.00, 1262.73],
                     [-2.91681405E-03,  7.69373649E-02, -3.48025563E-05,
                       1.86095180E-09,  2.01573617E-12, -2.57829342E+04,
                       3.00312148E+01]),
                NASA([1262.73, 5000.00],
                     [ 1.38377915E+01,  4.85945016E-02, -1.95474548E-05,
                       3.52837178E-09, -2.39064676E-13, -3.05141556E+04,
                      -4.48642836E+01])))

species(name=u'Ar',
        atoms='Ar:1',
        thermo=(NASA([200.00, 1000.00],
                     [ 2.50000000E+00,  0.00000000E+00,  0.00000000E+00,
                       0.00000000E+00,  0.00000000E+00, -7.45375000E+02,
                       4.37967000E+00]),
                NASA([1000.00, 6000.00],
                     [ 2.50000000E+00,  0.00000000E+00,  0.00000000E+00,
                       0.00000000E+00,  0.00000000E+00, -7.45375000E+02,
                       4.37967000E+00])))

species(name=u'He',
        atoms='He:1',
        thermo=(NASA([200.00, 1000.00],
                     [ 2.50000000E+00,  0.00000000E+00,  0.00000000E+00,
                       0.00000000E+00,  0.00000000E+00, -7.45375000E+02,
                       9.28724000E-01]),
                NASA([1000.00, 6000.00],
                     [ 2.50000000E+00,  0.00000000E+00,  0.00000000E+00,
                       0.00000000E+00,  0.00000000E+00, -7.45375000E+02,
                       9.28724000E-01])))

species(name=u'Ne',
        atoms='Ne:1',
        thermo=(NASA([200.00, 1000.00],
                     [ 2.50000000E+00,  0.00000000E+00,  0.00000000E+00,
                       0.00000000E+00,  0.00000000E+00, -7.45375000E+02,
                       3.35532000E+00]),
                NASA([1000.00, 6000.00],
                     [ 2.50000000E+00,  0.00000000E+00,  0.00000000E+00,
                       0.00000000E+00,  0.00000000E+00, -7.45375000E+02,
                       3.35532000E+00])))

species(name=u'N2',
        atoms='N:2',
        thermo=(NASA([200.00, 1000.00],
                     [ 3.53101000E+00, -1.23661000E-04, -5.02999000E-07,
                       2.43531000E-09, -1.40881000E-12, -1.04698000E+03,
                       2.96747000E+00]),
                NASA([1000.00, 6000.00],
                     [ 2.95258000E+00,  1.39690000E-03, -4.92632000E-07,
                       7.86010000E-11, -4.60755000E-15, -9.23949000E+02,
                       5.87189000E+00])))

species(name=u'C2H4(2)',
        atoms='H:4 C:2',
        thermo=(NASA([100.00, 979.36],
                     [ 3.97471606E+00, -4.75844285E-03,  4.16783770E-05,
                      -4.51392516E-08,  1.54224761E-11,  4.91540746E+03,
                       3.62430844E+00]),
                NASA([979.36, 5000.00],
                     [ 3.55660610E+00,  1.10627464E-02, -4.17019079E-06,
                       7.85586770E-10, -5.70060829E-14,  4.32046489E+03,
                       2.17719479E+00])))

species(name=u'C4H8-1(3)',
        atoms='H:8 C:4',
        thermo=(NASA([100.00, 1007.28],
                     [ 2.58772906E+00,  2.32777969E-02,  1.93412349E-05,
                      -3.55496333E-08,  1.36906009E-11, -1.91872926E+03,
                       1.45750618E+01]),
                NASA([1007.28, 5000.00],
                     [ 7.20517168E+00,  2.36361568E-02, -9.03150028E-06,
                       1.65392666E-09, -1.16019260E-13, -3.79733937E+03,
                      -1.24426257E+01])))

species(name=u'C4H8-2(4)',
        atoms='H:8 C:4',
        thermo=(NASA([100.00, 1157.79],
                     [ 2.51998327E+00,  2.76812799E-02,  9.43783469E-07,
                      -1.25009101E-08,  4.67144666E-12, -3.34374767E+03,
                       1.30195623E+01]),
                NASA([1157.79, 5000.00],
                     [ 6.04225708E+00,  2.60072350E-02, -1.04843374E-05,
                       1.90880922E-09, -1.30600505E-13, -4.86276511E+03,
                      -7.52715109E+00])))

species(name=u'C4H6(7)',
        atoms='H:6 C:4',
        thermo=(NASA([100.00, 946.05],
                     [ 2.80599310E+00,  1.02584471E-02,  6.17260255E-05,
                      -9.01642687E-08,  3.59116961E-11,  1.16584972E+04,
                       1.20621434E+01]),
                NASA([946.05, 5000.00],
                     [ 1.24693720E+01,  1.00553901E-02, -2.41206872E-06,
                       4.57077303E-10, -3.93160571E-14,  8.01077795E+03,
                      -4.36374720E+01])))

species(name=u'C3H6(24)',
        atoms='H:6 C:3',
        thermo=(NASA([100.00, 983.75],
                     [ 3.31912102E+00,  8.17958674E-03,  3.34736123E-05,
                      -4.36193684E-08,  1.58213364E-11,  7.49325328E+02,
                       9.54025058E+00]),
                NASA([983.75, 5000.00],
                     [ 5.36755173E+00,  1.70743019E-02, -6.35107626E-06,
                       1.16619529E-09, -8.27620279E-14, -4.87138326E+02,
                      -4.54467529E+00])))

species(name=u'H2(47)',
        atoms='H:2',
        thermo=(NASA([100.00, 1959.08],
                     [ 3.43536412E+00,  2.12710353E-04, -2.78625043E-07,
                       3.40267167E-10, -7.76031998E-14, -1.03135984E+03,
                      -3.90841732E+00]),
                NASA([1959.08, 5000.00],
                     [ 2.78816583E+00,  5.87640942E-04,  1.59010417E-07,
                      -5.52739026E-11,  4.34310984E-15, -5.96144270E+02,
                       1.12732655E-01])))

species(name=u'C6H10k(76)',
        atoms='H:10 C:6',
        thermo=(NASA([100.00, 1036.89],
                     [ 1.50874221E+00,  4.27939676E-02,  1.00407781E-05,
                      -3.76644958E-08,  1.56320088E-11,  7.74480595E+03,
                       2.33493905E+01]),
                NASA([1036.89, 5000.00],
                     [ 1.16601041E+01,  3.10397815E-02, -1.26024374E-05,
                       2.38495409E-09, -1.70150727E-13,  4.16633351E+03,
                      -3.30972272E+01])))

species(name=u'C6H10z(88)',
        atoms='H:10 C:6',
        thermo=(NASA([100.00, 1020.63],
                     [ 9.97427413E-01,  5.59777045E-02, -2.05880600E-05,
                      -1.17182304E-08,  8.13452041E-12,  6.84996860E+03,
                       2.32490569E+01]),
                NASA([1020.63, 5000.00],
                     [ 1.33828218E+01,  2.83661253E-02, -1.07663110E-05,
                       1.95749020E-09, -1.36589418E-13,  3.23173845E+03,
                      -4.20963085E+01])))

species(name=u'C4H8(124)',
        atoms='H:8 C:4',
        thermo=(NASA([100.00, 1061.33],
                     [ 2.52504770E+00,  2.64752782E-02,  7.08359238E-06,
                      -2.07731462E-08,  8.00430055E-12, -4.02607130E+03,
                       1.28857274E+01]),
                NASA([1061.33, 5000.00],
                     [ 6.48672669E+00,  2.49943921E-02, -9.83283171E-06,
                       1.79343299E-09, -1.24008235E-13, -5.62452310E+03,
                      -1.00316397E+01])))

species(name=u'C6H10(125)',
        atoms='H:10 C:6',
        thermo=(NASA([100.00, 1020.63],
                     [ 9.97427413E-01,  5.59777045E-02, -2.05880600E-05,
                      -1.17182304E-08,  8.13452041E-12,  6.30749855E+03,
                       2.38941836E+01]),
                NASA([1020.63, 5000.00],
                     [ 1.33828218E+01,  2.83661253E-02, -1.07663110E-05,
                       1.95749020E-09, -1.36589418E-13,  2.68926840E+03,
                      -4.14511818E+01])))

species(name=u'C8H12(142)',
        atoms='H:12 C:8',
        thermo=(NASA([100.00, 1002.94],
                     [ 1.69489980E-02,  7.28189377E-02, -2.16585698E-05,
                      -2.40807783E-08,  1.44597041E-11,  1.38562447E+04,
                       3.07679077E+01]),
                NASA([1002.94, 5000.00],
                     [ 1.77276883E+01,  3.45993801E-02, -1.29781828E-05,
                       2.37500136E-09, -1.67643536E-13,  8.67334638E+03,
                      -6.28559377E+01])))

species(name=u'C7H12(202)',
        atoms='H:12 C:7',
        thermo=(NASA([100.00, 1131.99],
                     [ 5.84283501E-01,  6.47608593E-02, -2.67633524E-05,
                      -4.34737531E-09,  4.44182478E-12,  3.09569841E+03,
                       2.80653782E+01]),
                NASA([1131.99, 5000.00],
                     [ 1.29982914E+01,  3.85892124E-02, -1.55301333E-05,
                       2.84554471E-09, -1.96328801E-13, -8.48502352E+02,
                      -3.83715994E+01])))

species(name=u'C5H8c(212)',
        atoms='H:8 C:5',
        thermo=(NASA([100.00, 1004.86],
                     [ 1.98273955E+00,  3.49998332E-02,  6.98515281E-06,
                      -3.05031334E-08,  1.32246652E-11,  6.96521034E+03,
                       1.60818191E+01]),
                NASA([1004.86, 5000.00],
                     [ 1.01246420E+01,  2.42323877E-02, -9.24886971E-06,
                       1.70115950E-09, -1.20059732E-13,  4.23624320E+03,
                      -2.86745770E+01])))

species(name=u'C5H8g(229)',
        atoms='H:8 C:5',
        thermo=(NASA([100.00, 1049.25],
                     [ 2.01062155E+00,  3.15407187E-02,  2.07789480E-05,
                      -4.44088985E-08,  1.72419112E-11,  7.01383967E+03,
                       1.65768346E+01]),
                NASA([1049.25, 5000.00],
                     [ 1.14809937E+01,  2.45641673E-02, -1.08867259E-05,
                       2.16707025E-09, -1.59145781E-13,  3.42314914E+03,
                      -3.72078866E+01])))

species(name=u'CH4(282)',
        atoms='H:4 C:1',
        thermo=(NASA([100.00, 1084.12],
                     [ 4.20541524E+00, -5.35557362E-03,  2.51123265E-05,
                      -2.13762843E-08,  5.97523937E-12, -1.01619433E+04,
                      -9.21279283E-01]),
                NASA([1084.12, 5000.00],
                     [ 9.08265721E-01,  1.14540858E-02, -4.57173828E-06,
                       8.29191671E-10, -5.66314895E-14, -9.71997444E+03,
                       1.39930944E+01])))

species(name=u'C5H10(284)',
        atoms='H:10 C:5',
        thermo=(NASA([100.00, 1883.68],
                     [ 2.29195787E+00,  4.21076449E-02, -1.49304794E-05,
                      -1.22102583E-10,  5.99441346E-13, -4.98138150E+03,
                       1.67887076E+01]),
                NASA([1883.68, 5000.00],
                     [ 1.47438472E+01,  2.72460315E-02, -1.23172689E-05,
                       2.21660273E-09, -1.44084857E-13, -1.17269008E+04,
                      -5.66226025E+01])))

species(name=u'C5H10(285)',
        atoms='H:10 C:5',
        thermo=(NASA([100.00, 960.03],
                     [ 1.92494941E+00,  3.23872757E-02,  3.28626489E-05,
                      -6.30221575E-08,  2.59714460E-11, -5.50776492E+03,
                       1.86664331E+01]),
                NASA([960.03, 5000.00],
                     [ 1.12167303E+01,  2.64314616E-02, -9.01591566E-06,
                       1.60298644E-09, -1.13436933E-13, -8.80144986E+03,
                      -3.36443365E+01])))

species(name=u'C5H10(286)',
        atoms='H:10 C:5',
        thermo=(NASA([100.00, 1065.88],
                     [ 1.83973645E+00,  3.88165649E-02,  3.95415802E-06,
                      -2.48620336E-08,  1.01608534E-11, -6.45875726E+03,
                       1.88194915E+01]),
                NASA([1065.88, 5000.00],
                     [ 8.87931728E+00,  3.15047857E-02, -1.26438740E-05,
                       2.33666558E-09, -1.63001335E-13, -9.04475166E+03,
                      -2.06827600E+01])))

species(name=u'C2H6(289)',
        atoms='H:6 C:2',
        thermo=(NASA([100.00, 1012.42],
                     [ 3.72239291E+00,  1.65083841E-03,  3.44175530E-05,
                      -3.76858229E-08,  1.24450657E-11, -1.15575901E+04,
                       4.68247999E+00]),
                NASA([1012.42, 5000.00],
                     [ 2.82848257E+00,  1.73040568E-02, -6.73334245E-06,
                       1.23742024E-09, -8.65676410E-14, -1.19978080E+04,
                       5.93811707E+00])))

species(name=u'C6H12(294)',
        atoms='H:12 C:6',
        thermo=(NASA([100.00, 2065.44],
                     [ 1.68598658E+00,  5.58664307E-02, -2.53057821E-05,
                       3.98016615E-09, -6.94904807E-14, -7.81739466E+03,
                       2.09919882E+01]),
                NASA([2065.44, 5000.00],
                     [ 2.13486140E+01,  2.79136045E-02, -1.23596487E-05,
                       2.17527434E-09, -1.38347372E-13, -1.80997789E+04,
                      -9.33598720E+01])))

species(name=u'C6H12(298)',
        atoms='H:12 C:6',
        thermo=(NASA([100.00, 3144.72],
                     [ 1.62486600E+00,  5.81706891E-02, -2.94074668E-05,
                       6.41453677E-09, -5.27511383E-13, -9.95070725E+03,
                       2.05730324E+01]),
                NASA([3144.72, 5000.00],
                     [ 2.63049846E+01,  2.09689465E-02, -8.89163385E-06,
                       1.47783715E-09, -8.83519412E-14, -2.26006402E+04,
                      -1.22203751E+02])))

species(name=u'C3H8(301)',
        atoms='H:8 C:3',
        thermo=(NASA([100.00, 989.99],
                     [ 3.06336167E+00,  1.29214561E-02,  3.47032808E-05,
                      -4.70946154E-08,  1.71384141E-11, -1.43905789E+04,
                       1.07835592E+01]),
                NASA([989.99, 5000.00],
                     [ 5.60440043E+00,  2.19528785E-02, -8.22080610E-06,
                       1.50103993E-09, -1.05635358E-13, -1.58394038E+04,
                      -6.22623300E+00])))

species(name=u'C4H10(302)',
        atoms='H:10 C:4',
        thermo=(NASA([100.00, 1147.60],
                     [ 2.16918413E+00,  3.43904632E-02, -1.61564236E-06,
                      -1.30726562E-08,  5.17350451E-12, -1.72505136E+04,
                       1.46546701E+01]),
                NASA([1147.60, 5000.00],
                     [ 6.78903089E+00,  3.03598162E-02, -1.21262050E-05,
                       2.19945025E-09, -1.50289312E-13, -1.91057969E+04,
                      -1.17329103E+01])))

species(name=u'C7H14(393)',
        atoms='H:14 C:7',
        thermo=(NASA([100.00, 1137.87],
                     [ 3.77000199E-01,  6.84581137E-02, -2.35458993E-05,
                      -8.78916695E-09,  5.80698771E-12, -1.04276840E+04,
                       2.98245651E+01]),
                NASA([1137.87, 5000.00],
                     [ 1.29448813E+01,  4.42102095E-02, -1.78572583E-05,
                       3.27300063E-09, -2.25635477E-13, -1.45781742E+04,
                      -3.81015599E+01])))

species(name=u'C7H14(394)',
        atoms='H:14 C:7',
        thermo=(NASA([100.00, 1054.67],
                     [ 4.65448694E-01,  6.48479495E-02, -9.56906733E-06,
                      -2.58210160E-08,  1.23868753E-11, -1.13879550E+04,
                       2.92560896E+01]),
                NASA([1054.67, 5000.00],
                     [ 1.32840013E+01,  4.31737590E-02, -1.70613062E-05,
                       3.13615581E-09, -2.18574261E-13, -1.55902553E+04,
                      -4.03721053E+01])))

species(name=u'C7H14(395)',
        atoms='H:14 C:7',
        thermo=(NASA([100.00, 1100.44],
                     [ 3.36335259E-01,  6.89089290E-02, -2.24004424E-05,
                      -1.17118400E-08,  7.23987544E-12, -1.21263821E+04,
                       2.91476310E+01]),
                NASA([1100.44, 5000.00],
                     [ 1.33113548E+01,  4.34773230E-02, -1.73567356E-05,
                       3.17806431E-09, -2.19724919E-13, -1.62978316E+04,
                      -4.06697099E+01])))

species(name=u'C7H14(397)',
        atoms='H:14 C:7',
        thermo=(NASA([100.00, 1300.42],
                     [ 1.83786614E-01,  7.34566979E-02, -3.86623385E-05,
                       6.98526361E-09,  4.17467271E-13, -1.22586059E+04,
                       2.90408371E+01]),
                NASA([1300.42, 5000.00],
                     [ 1.41904082E+01,  4.25138374E-02, -1.69743974E-05,
                       3.04599814E-09, -2.05395047E-13, -1.69280361E+04,
                      -4.61593110E+01])))

species(name=u'C7H12(398)',
        atoms='H:12 C:7',
        thermo=(NASA([100.00, 999.68],
                     [ 4.29571406E-01,  6.49379719E-02, -1.42316263E-05,
                      -2.68110632E-08,  1.46756236E-11,  1.33179837E+03,
                       2.65680971E+01]),
                NASA([999.68, 5000.00],
                     [ 1.58208064E+01,  3.35710199E-02, -1.25070130E-05,
                       2.27563528E-09, -1.59971208E-13, -3.25538740E+03,
                      -5.52328098E+01])))

species(name=u'C5H12(403)',
        atoms='H:12 C:5',
        thermo=(NASA([100.00, 1083.72],
                     [ 1.61174582E+00,  4.32467983E-02,  5.74950528E-06,
                      -2.75134571E-08,  1.08080045E-11, -2.00565292E+04,
                       1.98944429E+01]),
                NASA([1083.72, 5000.00],
                     [ 8.53683820E+00,  3.80814435E-02, -1.53303035E-05,
                       2.81977580E-09, -1.95507768E-13, -2.27551513E+04,
                      -1.95975419E+01])))

species(name=u'C6H14(408)',
        atoms='H:14 C:6',
        thermo=(NASA([100.00, 1048.16],
                     [ 8.83603407E-01,  5.70449582E-02, -2.15511769E-06,
                      -2.85512365E-08,  1.26618641E-11, -2.27982664E+04,
                       2.50352381E+01]),
                NASA([1048.16, 5000.00],
                     [ 1.11354266E+01,  4.25244017E-02, -1.65829595E-05,
                       3.01864905E-09, -2.09013581E-13, -2.62988561E+04,
                      -3.13529752E+01])))

species(name=u'C4H10(430)',
        atoms='H:10 C:4',
        thermo=(NASA([100.00, 987.08],
                     [ 2.18594095E+00,  3.04312883E-02,  1.83387931E-05,
                      -4.04090927E-08,  1.64481872E-11, -1.82080408E+04,
                       1.37947641E+01]),
                NASA([987.08, 5000.00],
                     [ 8.84811268E+00,  2.61183046E-02, -9.57929598E-06,
                       1.72895160E-09, -1.21006821E-13, -2.06283634E+04,
                      -2.38575760E+01])))

species(name=u'C5H12(431)',
        atoms='H:12 C:5',
        thermo=(NASA([100.00, 1035.89],
                     [ 1.72369892E+00,  4.01626686E-02,  1.63603121E-05,
                      -3.88326196E-08,  1.49780300E-11, -2.08560016E+04,
                       1.91510657E+01]),
                NASA([1035.89, 5000.00],
                     [ 7.87936773E+00,  3.91979316E-02, -1.52647178E-05,
                       2.77213157E-09, -1.91665486E-13, -2.33548825E+04,
                      -1.66693711E+01])))

species(name=u'C6H14(436)',
        atoms='H:14 C:6',
        thermo=(NASA([100.00, 1002.79],
                     [ 9.62511884E-01,  5.35099673E-02,  1.32037900E-05,
                      -4.70268617E-08,  1.98557427E-11, -2.36936864E+04,
                       2.41377511E+01]),
                NASA([1002.79, 5000.00],
                     [ 1.14867705E+01,  4.22488291E-02, -1.59010927E-05,
                       2.87000033E-09, -1.99356317E-13, -2.73489440E+04,
                      -3.43661848E+01])))

species(name=u'C8H14(508)',
        atoms='H:14 C:8',
        thermo=(NASA([100.00, 1031.59],
                     [-3.24308169E-01,  8.09803459E-02, -3.24425386E-05,
                      -1.31536671E-08,  1.01843255E-11, -1.50090156E+03,
                       3.15196958E+01]),
                NASA([1031.59, 5000.00],
                     [ 1.73697073E+01,  4.09232311E-02, -1.57129317E-05,
                       2.86474556E-09, -1.99759457E-13, -6.67068809E+03,
                      -6.17573781E+01])))

species(name=u'C8H14(739)',
        atoms='H:14 C:8',
        thermo=(NASA([100.00, 1506.76],
                     [ 5.49675181E-02,  8.43985440E-02, -5.64633487E-05,
                       1.98661295E-08, -2.94599969E-12, -7.77393079E+02,
                       2.95663347E+01]),
                NASA([1506.76, 5000.00],
                     [ 1.39949012E+01,  4.73919655E-02, -1.96226018E-05,
                       3.56583689E-09, -2.41458224E-13, -4.97819756E+03,
                      -4.34005510E+01])))

species(name=u'C9H16(744)',
        atoms='H:16 C:9',
        thermo=(NASA([100.00, 1438.82],
                     [-5.13601389E-01,  9.83208948E-02, -6.75577873E-05,
                       2.46964081E-08, -3.83387574E-12, -3.61824880E+03,
                       3.38487440E+01]),
                NASA([1438.82, 5000.00],
                     [ 1.46514373E+01,  5.61616506E-02, -2.36063201E-05,
                       4.33201741E-09, -2.95526202E-13, -7.98224350E+03,
                      -4.48313440E+01])))

species(name=u'S(958)',
        atoms='H:16 C:10',
        thermo=(NASA([100.00, 1050.23],
                     [-1.54493814E+00,  1.05468860E-01, -5.71170539E-05,
                       2.19606261E-10,  7.09552345E-12,  6.66890775E+03,
                       3.98893243E+01]),
                NASA([1050.23, 5000.00],
                     [ 2.15402055E+01,  4.80180651E-02, -1.85864175E-05,
                       3.38935389E-09, -2.35755397E-13,  1.39391206E+02,
                      -8.06155283E+01])))

species(name=u'S(961)',
        atoms='H:18 C:11',
        thermo=(NASA([100.00, 1098.23],
                     [-2.33422004E+00,  1.21887322E-01, -7.64335550E-05,
                       1.49829050E-08,  2.28389276E-12,  3.83778150E+03,
                       4.49705057E+01]),
                NASA([1098.23, 5000.00],
                     [ 2.34928702E+01,  5.47178154E-02, -2.14298317E-05,
                       3.89517297E-09, -2.68779359E-13, -3.45717709E+03,
                      -8.94354947E+01])))

species(name=u'S(1073)',
        atoms='H:14 C:8',
        thermo=(NASA([100.00, 1677.55],
                     [-1.23162603E-01,  8.33797247E-02, -5.34920083E-05,
                       1.75022071E-08, -2.35819003E-12,  1.07043157E+03,
                       3.10169622E+01]),
                NASA([1677.55, 5000.00],
                     [ 1.69619765E+01,  4.26415171E-02, -1.70655808E-05,
                       3.02620199E-09, -2.00882094E-13, -4.66181826E+03,
                      -6.02477324E+01])))

species(name=u'S(1761)',
        atoms='H:18 C:10',
        thermo=(NASA([100.00, 1101.98],
                     [-1.92193078E+00,  1.14010467E-01, -6.90224168E-05,
                       1.22763700E-08,  2.48768194E-12, -8.68664979E+03,
                       4.00787368E+01]),
                NASA([1101.98, 5000.00],
                     [ 2.15873768E+01,  5.36875713E-02, -2.09577621E-05,
                       3.79562531E-09, -2.61093846E-13, -1.53866703E+04,
                      -8.25136692E+01])))

species(name=u'S(1786)',
        atoms='H:16 C:8',
        thermo=(NASA([100.00, 1101.74],
                     [-3.02651568E-01,  8.10186813E-02, -2.80330966E-05,
                      -1.21354914E-08,  8.02001340E-12, -1.42199976E+04,
                       3.42611998E+01]),
                NASA([1101.74, 5000.00],
                     [ 1.51381607E+01,  5.00380884E-02, -1.99984150E-05,
                       3.66389588E-09, -2.53403166E-13, -1.91444395E+04,
                      -4.86355338E+01])))

species(name=u'S(3497)',
        atoms='H:18 C:9',
        thermo=(NASA([100.00, 1787.16],