units(length='cm', time='s', quantity='mol', act_energy='kcal/mol')

ideal_gas(name='gas',
          elements="H D T C Ci O Oi N Ne Ar He Si S Cl X",
          species="""n-heptane   Ar          He          Ne
                     N2          C2H4(2)     C4H8-1(3)   C4H8-2(4)
                     C4H6(7)     C6H8(9)     C3H6(24)    C8H10(78)
                     C2H6(135)   C6H10(137)  C6H10(140)  C4H10(141)
                     C3H8(142)   C6H12(149)  C8H14(152)  C8H14(156)
                     C6H10(193)  C8H12(200)  C8H16(201)  C8H14(204)
                     C8H12(243)  C6H12(248)  C8H16(249)  C8H14(252)
                     C6H12(270)  C8H16(271)  C8H14(274)  C8H12(286)
                     C6H12(291)  C8H16(292)  C8H14(295)  C8H14(299)
                     C8H14(300)  C6H10(308)  C6H12(316)  C8H16(317)
                     C8H14(320)  C5H10(327)  S(634)      C7H14(868)
                     S(991)      S(1027)     S(1332)     S(1509)
                     S(1670)     C5H8(1798)  S(3051)     S(3253)
                     S(3649)     S(3700)     S(3749)     S(4315)
                     S(5179)     S(5416)     S(5417)     S(5419)
                     S(5566)     S(5735)     S(6206)     S(7171)
                     S(7172)     S(7197)     S(7225)     S(7721)
                     S(9933)     S(9969)""",
          reactions='gas-*',
          initial_state=state(temperature=300.0, pressure=OneAtm))

ideal_interface(name='surface1',
                elements="H D T C Ci O Oi N Ne Ar He Si S Cl X",
                species="""X(1)        HX(5)       C2H3X(27)   allylX(28)
                          CH3X(29)    C2H5X(30)   C4H7X(31)   C4H7X(32)
                          C4H7X(33)   C4H7X(34)   C3H5X(35)   C4H7X(36)
                          C4H7X(37)   C4H9X(44)   C4H9X(45)   C6H11X(50)
                          C6H11X(51)  C4H5X(56)   C4H5X(57)   C6H9X(65)
                          C6H9X(66)   C6H9X(72)   C8H11X(76)  C8H11X(77)
                          C6H7X(84)   C6H7X(85)   C6H7X(86)   C6H9X(97)
                          C8H11X(99)  C6H9X(118)  SX(132)     SX(133)
                          SX(134)     SX(136)     C3H7X(143)  SX(145)
                          SX(146)     SX(147)     SX(150)     SX(151)
                          SX(163)     SX(164)     SX(165)     SX(166)
                          SX(171)     SX(172)     C6H9X(207)  C6H9X(208)
                          C4H7X(258)  SX(259)     SX(280)     SX(281)
                          SX(282)     C3H5X(301)  SX(303)     SX(333)
                          SX(339)     SX(340)     SX(342)     SX(378)
                          SX(383)     SX(422)     SX(476)     SX(522)
                          SX(523)     SX(554)     SX(556)     SX(572)
                          SX(573)     SX(574)     SX(629)     SX(661)
                          SX(759)     SX(760)     SX(761)     SX(771)
                          C6H7X(801)  SX(875)     SX(880)     C6H9X(973)
                          SX(976)     SX(1013)    SX(1014)    SX(1015)
                          SX(1053)    SX(1085)    SX(1089)    SX(1092)
                          SX(1098)    SX(1099)    SX(1205)    SX(1337)
                          SX(1339)    SX(1341)    SX(1342)    SX(1343)
                          SX(1371)    SX(1419)    SX(1483)    SX(1484)
                          SX(1559)    SX(1563)    SX(1564)    SX(1591)
                          SX(3127)    SX(3131)    SX(3341)    SX(3342)
                          SX(3701)    SX(4400)    SX(4424)    SX(4448)
                          SX(4449)    SX(4497)    SX(4498)    SX(4561)
                          SX(4585)    SX(4685)    SX(4686)    SX(4687)
                          SX(4688)    SX(4689)    SX(4690)    SX(5992)
                          SX(6050)    SX(7062)    SX(7216)    SX(8206)
                          SX(9737)    SX(9935)    SX(9936)    SX(9944)
                          SX(9945)    SX(9970)""",
                site_density=2.72e-09,
                phases="gas",
          reactions='surface1-*',
                initial_state=state(temperature=300.0, pressure=OneAtm))

#-------------------------------------------------------------------------------
# Element data
#-------------------------------------------------------------------------------

element(symbol=u'X', atomic_mass=195.083)
element(symbol=u'Ci', atomic_mass=13.003)
element(symbol=u'D', atomic_mass=2.014)
element(symbol=u'Oi', atomic_mass=18.0)
element(symbol=u'T', atomic_mass=3.016)
#-------------------------------------------------------------------------------
# Species data
#-------------------------------------------------------------------------------

species(name=u'n-heptane',
        atoms='H:16 C:7',
        thermo=(NASA([100.00, 1262.73],
                     [-2.91681405E-03,  7.69373649E-02, -3.48025563E-05,
                       1.86095180E-09,  2.01573617E-12, -2.57829342E+04,
                       3.00312148E+01]),
                NASA([1262.73, 5000.00],
                     [ 1.38377915E+01,  4.85945016E-02, -1.95474548E-05,
                       3.52837178E-09, -2.39064676E-13, -3.05141556E+04,
                      -4.48642836E+01])))

species(name=u'Ar',
        atoms='Ar:1',
        thermo=(NASA([200.00, 1000.00],
                     [ 2.50000000E+00,  0.00000000E+00,  0.00000000E+00,
                       0.00000000E+00,  0.00000000E+00, -7.45375000E+02,
                       4.37967000E+00]),
                NASA([1000.00, 6000.00],
                     [ 2.50000000E+00,  0.00000000E+00,  0.00000000E+00,
                       0.00000000E+00,  0.00000000E+00, -7.45375000E+02,
                       4.37967000E+00])))

species(name=u'He',
        atoms='He:1',
        thermo=(NASA([200.00, 1000.00],
                     [ 2.50000000E+00,  0.00000000E+00,  0.00000000E+00,
                       0.00000000E+00,  0.00000000E+00, -7.45375000E+02,
                       9.28724000E-01]),
                NASA([1000.00, 6000.00],
                     [ 2.50000000E+00,  0.00000000E+00,  0.00000000E+00,
                       0.00000000E+00,  0.00000000E+00, -7.45375000E+02,
                       9.28724000E-01])))

species(name=u'Ne',
        atoms='Ne:1',
        thermo=(NASA([200.00, 1000.00],
                     [ 2.50000000E+00,  0.00000000E+00,  0.00000000E+00,
                       0.00000000E+00,  0.00000000E+00, -7.45375000E+02,
                       3.35532000E+00]),
                NASA([1000.00, 6000.00],
                     [ 2.50000000E+00,  0.00000000E+00,  0.00000000E+00,
                       0.00000000E+00,  0.00000000E+00, -7.45375000E+02,
                       3.35532000E+00])))

species(name=u'N2',
        atoms='N:2',
        thermo=(NASA([200.00, 1000.00],
                     [ 3.53101000E+00, -1.23661000E-04, -5.02999000E-07,
                       2.43531000E-09, -1.40881000E-12, -1.04698000E+03,
                       2.96747000E+00]),
                NASA([1000.00, 6000.00],
                     [ 2.95258000E+00,  1.39690000E-03, -4.92632000E-07,
                       7.86010000E-11, -4.60755000E-15, -9.23949000E+02,
                       5.87189000E+00])))

species(name=u'C2H4(2)',
        atoms='H:4 C:2',
        thermo=(NASA([100.00, 979.36],
                     [ 3.97471606E+00, -4.75844285E-03,  4.16783770E-05,
                      -4.51392516E-08,  1.54224761E-11,  4.91540746E+03,
                       3.62430844E+00]),
                NASA([979.36, 5000.00],
                     [ 3.55660610E+00,  1.10627464E-02, -4.17019079E-06,
                       7.85586770E-10, -5.70060829E-14,  4.32046489E+03,
                       2.17719479E+00])))

species(name=u'C4H8-1(3)',
        atoms='H:8 C:4',
        thermo=(NASA([100.00, 1007.28],
                     [ 2.58772906E+00,  2.32777969E-02,  1.93412349E-05,
                      -3.55496333E-08,  1.36906009E-11, -1.91872926E+03,
                       1.45750618E+01]),
                NASA([1007.28, 5000.00],
                     [ 7.20517168E+00,  2.36361568E-02, -9.03150028E-06,
                       1.65392666E-09, -1.16019260E-13, -3.79733937E+03,
                      -1.24426257E+01])))

species(name=u'C4H8-2(4)',
        atoms='H:8 C:4',
        thermo=(NASA([100.00, 1157.79],
                     [ 2.51998327E+00,  2.76812799E-02,  9.43783469E-07,
                      -1.25009101E-08,  4.67144666E-12, -3.34374767E+03,
                       1.30195623E+01]),
                NASA([1157.79, 5000.00],
                     [ 6.04225708E+00,  2.60072350E-02, -1.04843374E-05,
                       1.90880922E-09, -1.30600505E-13, -4.86276511E+03,
                      -7.52715109E+00])))

species(name=u'C4H6(7)',
        atoms='H:6 C:4',
        thermo=(NASA([100.00, 946.05],
                     [ 2.80599310E+00,  1.02584471E-02,  6.17260255E-05,
                      -9.01642687E-08,  3.59116961E-11,  1.16584972E+04,
                       1.20621434E+01]),
                NASA([946.05, 5000.00],
                     [ 1.24693720E+01,  1.00553901E-02, -2.41206872E-06,
                       4.57077303E-10, -3.93160571E-14,  8.01077795E+03,
                      -4.36374720E+01])))

species(name=u'C6H8(9)',
        atoms='H:8 C:6',
        thermo=(NASA([100.00, 941.22],
                     [ 1.38427980E+00,  4.14411503E-02,  1.94287417E-05,
                      -6.16688700E-08,  2.86503633E-11,  1.76317461E+04,
                       1.93257509E+01]),
                NASA([941.22, 5000.00],
                     [ 1.69619680E+01,  1.57221707E-02, -4.10118367E-06,
                       6.95736344E-10, -5.26521484E-14,  1.29061672E+04,
                      -6.44097553E+01])))

species(name=u'C3H6(24)',
        atoms='H:6 C:3',
        thermo=(NASA([100.00, 983.75],
                     [ 3.31912102E+00,  8.17958674E-03,  3.34736123E-05,
                      -4.36193684E-08,  1.58213364E-11,  7.49325328E+02,
                       9.54025058E+00]),
                NASA([983.75, 5000.00],
                     [ 5.36755173E+00,  1.70743019E-02, -6.35107626E-06,
                       1.16619529E-09, -8.27620279E-14, -4.87138326E+02,
                      -4.54467529E+00])))

species(name=u'C8H10(78)',
        atoms='H:10 C:8',
        thermo=(NASA([100.00, 941.38],
                     [ 8.64508879E-02,  6.59507123E-02,  1.49007776E-06,
                      -6.06862449E-08,  3.13845046E-11,  2.39088929E+04,
                       2.66192822E+01]),
                NASA([941.38, 5000.00],
                     [ 2.28417755E+01,  1.96704891E-02, -5.08803462E-06,
                       8.53682038E-10, -6.42382395E-14,  1.73909786E+04,
                      -9.36509497E+01])))

species(name=u'C2H6(135)',
        atoms='H:6 C:2',
        thermo=(NASA([100.00, 1012.42],
                     [ 3.72239291E+00,  1.65083841E-03,  3.44175530E-05,
                      -3.76858229E-08,  1.24450657E-11, -1.15575901E+04,
                       4.68247999E+00]),
                NASA([1012.42, 5000.00],
                     [ 2.82848257E+00,  1.73040568E-02, -6.73334245E-06,
                       1.23742024E-09, -8.65676410E-14, -1.19978080E+04,
                       5.93811707E+00])))

species(name=u'C6H10(137)',
        atoms='H:10 C:6',
        thermo=(NASA([100.00, 1045.42],
                     [ 1.54967147E+00,  4.21895837E-02,  1.04895346E-05,
                      -3.69750926E-08,  1.50988524E-11,  6.71774665E+03,
                       2.39491991E+01]),
                NASA([1045.42, 5000.00],
                     [ 1.12124240E+01,  3.19133588E-02, -1.30691489E-05,
                       2.47430092E-09, -1.76160956E-13,  3.23863001E+03,
                      -3.00742335E+01])))

species(name=u'C6H10(140)',
        atoms='H:10 C:6',
        thermo=(NASA([100.00, 1020.63],
                     [ 9.97427413E-01,  5.59777045E-02, -2.05880600E-05,
                      -1.17182304E-08,  8.13452041E-12,  6.30749855E+03,
                       2.38941836E+01]),
                NASA([1020.63, 5000.00],
                     [ 1.33828218E+01,  2.83661253E-02, -1.07663110E-05,
                       1.95749020E-09, -1.36589418E-13,  2.68926840E+03,
                      -4.14511818E+01])))

species(name=u'C4H10(141)',
        atoms='H:10 C:4',
        thermo=(NASA([100.00, 1147.60],
                     [ 2.16918413E+00,  3.43904632E-02, -1.61564236E-06,
                      -1.30726562E-08,  5.17350451E-12, -1.72505136E+04,
                       1.46546701E+01]),
                NASA([1147.60, 5000.00],
                     [ 6.78903089E+00,  3.03598162E-02, -1.21262050E-05,
                       2.19945025E-09, -1.50289312E-13, -1.91057969E+04,
                      -1.17329103E+01])))

species(name=u'C3H8(142)',
        atoms='H:8 C:3',
        thermo=(NASA([100.00, 989.99],
                     [ 3.06336167E+00,  1.29214561E-02,  3.47032808E-05,
                      -4.70946154E-08,  1.71384141E-11, -1.43905789E+04,
                       1.07835592E+01]),
                NASA([989.99, 5000.00],
                     [ 5.60440043E+00,  2.19528785E-02, -8.22080610E-06,
                       1.50103993E-09, -1.05635358E-13, -1.58394038E+04,
                      -6.22623300E+00])))

species(name=u'C6H12(149)',
        atoms='H:12 C:6',
        thermo=(NASA([100.00, 2065.44],
                     [ 1.68598658E+00,  5.58664307E-02, -2.53057821E-05,
                       3.98016615E-09, -6.94904807E-14, -7.81739466E+03,
                       2.09919882E+01]),
                NASA([2065.44, 5000.00],
                     [ 2.13486140E+01,  2.79136045E-02, -1.23596487E-05,
                       2.17527434E-09, -1.38347372E-13, -1.80997789E+04,
                      -9.33598720E+01])))

species(name=u'C8H14(152)',
        atoms='H:14 C:8',
        thermo=(NASA([100.00, 1032.47],
                     [-1.52197289E-01,  7.68454143E-02, -2.34614456E-05,
                      -2.05041347E-08,  1.22957650E-11, -1.31857568E+03,
                       3.21075857E+01]),
                NASA([1032.47, 5000.00],
                     [ 1.66387280E+01,  4.18183293E-02, -1.61931864E-05,
                       2.96808824E-09, -2.07607085E-13, -6.38610066E+03,
                      -5.71853008E+01])))

species(name=u'C8H14(156)',
        atoms='H:14 C:8',
        thermo=(NASA([100.00, 1031.59],
                     [-3.24308169E-01,  8.09803459E-02, -3.24425386E-05,
                      -1.31536671E-08,  1.01843255E-11, -1.50090156E+03,
                       3.15196958E+01]),
                NASA([1031.59, 5000.00],
                     [ 1.73697073E+01,  4.09232311E-02, -1.57129317E-05,
                       2.86474556E-09, -1.99759457E-13, -6.67068809E+03,
                      -6.17573781E+01])))

species(name=u'C6H10(193)',
        atoms='H:10 C:6',
        thermo=(NASA([100.00, 1036.89],
                     [ 1.50874221E+00,  4.27939676E-02,  1.00407781E-05,
                      -3.76644958E-08,  1.56320088E-11,  7.74480595E+03,
                       2.33493905E+01]),
                NASA([1036.89, 5000.00],
                     [ 1.16601041E+01,  3.10397815E-02, -1.26024374E-05,
                       2.38495409E-09, -1.70150727E-13,  4.16633351E+03,
                      -3.30972272E+01])))

species(name=u'C8H12(200)',
        atoms='H:12 C:8',
        thermo=(NASA([100.00, 1002.94],
                     [ 1.69489980E-02,  7.28189377E-02, -2.16585698E-05,
                      -2.40807783E-08,  1.44597041E-11,  1.38562447E+04,
                       3.07679077E+01]),
                NASA([1002.94, 5000.00],
                     [ 1.77276883E+01,  3.45993801E-02, -1.29781828E-05,
                       2.37500136E-09, -1.67643536E-13,  8.67334638E+03,
                      -6.28559377E+01])))

species(name=u'C8H16(201)',
        atoms='H:16 C:8',
        thermo=(NASA([100.00, 1248.81],
                     [-4.26647485E-01,  8.49512374E-02, -4.26977778E-05,
                       5.19306335E-09,  1.55005691E-12, -1.32580173E+04,
                       3.49638273E+01]),
                NASA([1248.81, 5000.00],
                     [ 1.57326579E+01,  4.96311262E-02, -2.00187569E-05,
                       3.62701466E-09, -2.46632049E-13, -1.85758476E+04,
                      -5.17182159E+01])))

species(name=u'C8H14(204)',
        atoms='H:14 C:8',
        thermo=(NASA([100.00, 1131.55],
                     [-3.85809817E-02,  7.63741971E-02, -3.10952919E-05,
                      -5.90347867E-09,  5.52756901E-12,  2.09688836E+03,
                       3.33418113E+01]),
                NASA([1131.55, 5000.00],
                     [ 1.48574659E+01,  4.52274824E-02, -1.83215003E-05,
                       3.37064281E-09, -2.33159586E-13, -2.65132869E+03,
                      -4.64489898E+01])))

species(name=u'C8H12(243)',
        atoms='H:12 C:8',
        thermo=(NASA([100.00, 1066.82],
                     [-6.90279206E-02,  7.77631354E-02, -4.25469002E-05,
                       2.07979121E-09,  4.19202863E-12,  1.30198536E+04,
                       2.96530167E+01]),
                NASA([1066.82, 5000.00],
                     [ 1.62725496E+01,  3.71185641E-02, -1.44020029E-05,
                       2.61623348E-09, -1.80996976E-13,  8.35933475E+03,
                      -5.57441245E+01])))

species(name=u'C6H12(248)',
        atoms='H:12 C:6',
        thermo=(NASA([100.00, 1018.92],
                     [ 1.21827324E+00,  4.88303598E-02,  8.49335826E-06,
                      -3.91899735E-08,  1.67107196E-11, -8.55522126E+03,
                       2.43074946E+01]),
                NASA([1018.92, 5000.00],
                     [ 1.16698119E+01,  3.59250755E-02, -1.39120664E-05,
                       2.55991991E-09, -1.79822160E-13, -1.21450086E+04,
                      -3.34751762E+01])))

species(name=u'C8H16(249)',
        atoms='H:16 C:8',
        thermo=(NASA([100.00, 1101.74],
                     [-3.02651568E-01,  8.10186813E-02, -2.80330966E-05,
                      -1.21354914E-08,  8.02001340E-12, -1.42199976E+04,
                       3.42611998E+01]),
                NASA([1101.74, 5000.00],
                     [ 1.51381607E+01,  5.00380884E-02, -1.99984150E-05,
                       3.66389588E-09, -2.53403166E-13, -1.91444395E+04,
                      -4.86355338E+01])))

species(name=u'C8H14(252)',
        atoms='H:14 C:8',
        thermo=(NASA([100.00, 1054.62],
                     [ 5.20919214E-02,  7.27359408E-02, -1.70121361E-05,
                      -2.30834026E-08,  1.21743162E-11,  1.13652445E+03,
                       3.34586351E+01]),
                NASA([1054.62, 5000.00],
                     [ 1.52033267E+01,  4.41819662E-02, -1.75212618E-05,
                       3.23294243E-09, -2.26036936E-13, -3.66708678E+03,
                      -4.80659324E+01])))

species(name=u'C6H12(270)',
        atoms='H:12 C:6',
        thermo=(NASA([100.00, 1083.88],
                     [ 1.36789859E+00,  4.60332170E-02,  1.03872042E-05,
                      -3.61548644E-08,  1.41144370E-11, -9.21215455E+03,
                       2.36685346E+01]),
                NASA([1083.88, 5000.00],
                     [ 1.07762218E+01,  3.82405519E-02, -1.60946813E-05,
                       3.05489613E-09, -2.16276948E-13, -1.28334192E+04,
                      -2.97757608E+01])))

species(name=u'C8H16(271)',
        atoms='H:16 C:8',
        thermo=(NASA([100.00, 1183.71],
                     [-4.57484247E-01,  8.53298559E-02, -4.14911564E-05,
                       2.43658544E-09,  2.82059943E-12, -1.49572294E+04,
                       3.42485540E+01]),
                NASA([1183.71, 5000.00],
                     [ 1.56630838E+01,  4.95614656E-02, -1.98700854E-05,
                       3.61010089E-09, -2.46884424E-13, -2.00841813E+04,
                      -5.17783763E+01])))

species(name=u'C8H14(274)',
        atoms='H:14 C:8',
        thermo=(NASA([100.00, 1096.95],
                     [-7.78461990E-02,  7.68073646E-02, -2.98832594E-05,
                      -8.91840601E-09,  7.00184110E-12,  3.98131888E+02,
                       3.33530852E+01]),
                NASA([1096.95, 5000.00],
                     [ 1.52288642E+01,  4.44879086E-02, -1.78177820E-05,
                       3.27506160E-09, -2.27202204E-13, -4.37365343E+03,
                      -4.83528464E+01])))

species(name=u'C8H12(286)',
        atoms='H:12 C:8',
        thermo=(NASA([100.00, 969.72],
                     [ 3.93158683E-02,  6.94810364E-02, -5.67867310E-06,
                      -4.59940342E-08,  2.36868668E-11,  1.06247696E+04,
                       2.95643335E+01]),
                NASA([969.72, 5000.00],
                     [ 1.95488470E+01,  3.08499781E-02, -1.06480761E-05,
                       1.91982703E-09, -1.37319493E-13,  4.87359776E+03,
                      -7.41022237E+01])))

species(name=u'C6H12(291)',
        atoms='H:12 C:6',
        thermo=(NASA([100.00, 1839.14],
                     [ 7.39766525E-01,  6.35836379E-02, -3.85035731E-05,
                       1.16726754E-08, -1.43915861E-12, -9.53996498E+03,
                       2.35193792E+01]),
                NASA([1839.14, 5000.00],
                     [ 1.56639911E+01,  3.11245214E-02, -1.20299805E-05,
                       2.07631491E-09, -1.34696441E-13, -1.50295162E+04,
                      -5.75746881E+01])))

species(name=u'C8H16(292)',
        atoms='H:16 C:8',
        thermo=(NASA([100.00, 1159.54],
                     [-2.62017588E-01,  8.09409885E-02, -3.17241123E-05,
                      -5.78609059E-09,  5.24173243E-12, -1.45998207E+04,
                       3.45952444E+01]),
                NASA([1159.54, 5000.00],
                     [ 1.46809128E+01,  5.08555978E-02, -2.05692853E-05,
                       3.76328327E-09, -2.58751019E-13, -1.95080498E+04,
                      -4.59292848E+01])))

species(name=u'C8H14(295)',
        atoms='H:14 C:8',
        thermo=(NASA([100.00, 1091.02],
                     [ 1.02132729E-01,  7.25827633E-02, -2.06049462E-05,
                      -1.66277803E-08,  9.25388472E-12,  7.56240910E+02,
                       3.37565654E+01]),
                NASA([1091.02, 5000.00],
                     [ 1.44438405E+01,  4.54714351E-02, -1.83476304E-05,
                       3.38988070E-09, -2.35987010E-13, -3.88903761E+03,
                      -4.36302069E+01])))

species(name=u'C8H14(299)',
        atoms='H:14 C:8',
        thermo=(NASA([100.00, 1016.25],
                     [-1.96777655E-01,  7.73097837E-02, -2.22069863E-05,
                      -2.37965356E-08,  1.39851151E-11, -2.84093532E+03,
                       3.12908370E+01]),
                NASA([1016.25, 5000.00],
                     [ 1.72431734E+01,  4.07120734E-02, -1.54898359E-05,
                       2.82734689E-09, -1.98026375E-13, -8.04042418E+03,
                      -6.12697843E+01])))

species(name=u'C8H14(300)',
        atoms='H:14 C:8',
        thermo=(NASA([100.00, 1017.96],
                     [-2.59927945E-02,  7.31909148E-02, -1.32839178E-05,
                      -3.10693841E-08,  1.60625166E-11, -2.65855269E+03,
                       3.11903064E+01]),
                NASA([1017.96, 5000.00],
                     [ 1.65161043E+01,  4.16004074E-02, -1.59661443E-05,
                       2.92974981E-09, -2.05795597E-13, -7.75744250E+03,
                      -5.74127991E+01])))

species(name=u'C6H10(308)',
        atoms='H:10 C:6',
        thermo=(NASA([100.00, 1020.63],
                     [ 9.97427413E-01,  5.59777045E-02, -2.05880600E-05,
                      -1.17182304E-08,  8.13452041E-12,  6.30749855E+03,
                       2.38941836E+01]),
                NASA([1020.63, 5000.00],
                     [ 1.33828218E+01,  2.83661253E-02, -1.07663110E-05,
                       1.95749020E-09, -1.36589418E-13,  2.68926840E+03,
                      -4.14511818E+01])))

species(name=u'C6H12(316)',
        atoms='H:12 C:6',
        thermo=(NASA([100.00, 3144.72],
                     [ 1.62486600E+00,  5.81706891E-02, -2.94074668E-05,
                       6.41453677E-09, -5.27511383E-13, -9.95070725E+03,
                       2.05730324E+01]),
                NASA([3144.72, 5000.00],
                     [ 2.63049846E+01,  2.09689465E-02, -8.89163385E-06,
                       1.47783715E-09, -8.83519412E-14, -2.26006402E+04,
                      -1.22203751E+02])))

species(name=u'C8H16(317)',
        atoms='H:16 C:8',
        thermo=(NASA([100.00, 1809.61],
                     [-5.44057517E-01,  8.90393203E-02, -5.45822200E-05,
                       1.67861911E-08, -2.10317104E-12, -1.50921832E+04,
                       3.39095225E+01]),
                NASA([1809.61, 5000.00],
                     [ 1.99433691E+01,  4.37534683E-02, -1.70444089E-05,
                       2.95712584E-09, -1.92666931E-13, -2.25070314E+04,
                      -7.70817871E+01])))

species(name=u'C8H14(320)',
        atoms='H:14 C:8',
        thermo=(NASA([100.00, 1280.64],
                     [-2.40718928E-01,  8.14813327E-02, -4.66009351E-05,
                       1.03785261E-08, -7.50594427E-14,  2.66338744E+02,
                       3.32829492E+01]),
                NASA([1280.64, 5000.00],
                     [ 1.60595843E+01,  4.35867655E-02, -1.74638285E-05,
                       3.14846671E-09, -2.13252517E-13, -4.97615747E+03,
                      -5.35566046E+01])))

species(name=u'C5H10(327)',
        atoms='H:10 C:5',
        thermo=(NASA([100.00, 1065.88],
                     [ 1.83973645E+00,  3.88165649E-02,  3.95415802E-06,
                      -2.48620336E-08,  1.01608534E-11, -6.45875726E+03,
                       1.88194915E+01]),
                NASA([1065.88, 5000.00],
                     [ 8.87931728E+00,  3.15047857E-02, -1.26438740E-05,
                       2.33666558E-09, -1.63001335E-13, -9.04475166E+03,
                      -2.06827600E+01])))

species(name=u'S(634)',
        atoms='H:14 C:10',
        thermo=(NASA([100.00, 986.06],
                     [-1.44909215E+00,  1.01424899E-01, -4.84844562E-05,
                      -1.57983685E-08,  1.50673204E-11,  1.99508936E+04,
                       3.67659825E+01]),
                NASA([986.06, 5000.00],
                     [ 2.42859453E+01,  3.77392366E-02, -1.35336379E-05,
                       2.44095589E-09, -1.72311717E-13,  1.28965094E+04,
                      -9.70649724E+01])))

species(name=u'C7H14(868)',
        atoms='H:14 C:7',
        thermo=(NASA([100.00, 1300.42],
                     [ 1.83786614E-01,  7.34566979E-02, -3.86623385E-05,
                       6.98526361E-09,  4.17467271E-13, -1.22586059E+04,
                       2.90408371E+01]),
                NASA([1300.42, 5000.00],
                     [ 1.41904082E+01,  4.25138374E-02, -1.69743974E-05,
                       3.04599814E-09, -2.05395047E-13, -1.69280361E+04,
                      -4.61593110E+01])))

species(name=u'S(991)',
        atoms='H:16 C:10',
        thermo=(NASA([100.00, 1025.84],
                     [-1.24619703E+00,  9.72808915E-02, -3.52285872E-05,
                      -2.14929919E-08,  1.45299986E-11,  7.41366698E+03,
                       4.07519606E+01]),
                NASA([1025.84, 5000.00],
                     [ 2.09282520E+01,  4.83786266E-02, -1.86452358E-05,
                       3.42223986E-09, -2.40159228E-13,  8.87786276E+02,
                      -7.64256592E+01])))

species(name=u'S(1027)',
        atoms='H:14 C:8',
        thermo=(NASA([100.00, 1016.24],
                     [-1.96755810E-01,  7.73095243E-02, -2.22060748E-05,
                      -2.37977152E-08,  1.39856141E-11, -3.01706290E+03,
                       3.14467567E+01]),
                NASA([1016.24, 5000.00],
                     [ 1.72430776E+01,  4.07122350E-02, -1.54899285E-05,
                       2.82736868E-09, -1.98028177E-13, -8.21651015E+03,
                      -6.11132465E+01])))

species(name=u'S(1332)',
        atoms='H:14 C:7',
        thermo=(NASA([100.00, 1225.69],
                     [ 4.00354155E-01,  6.88610374E-02, -2.83536062E-05,
                      -1.71059247E-09,  2.95593331E-12, -1.19022037E+04,
                       2.93088288E+01]),
                NASA([1225.69, 5000.00],
                     [ 1.27346419E+01,  4.45270642E-02, -1.80547468E-05,
                       3.28366250E-09, -2.23933492E-13, -1.61215491E+04,
                      -3.75848788E+01])))

species(name=u'S(1509)',
        atoms='H:12 C:6',
        thermo=(NASA([100.00, 1829.14],
                     [ 7.23497206E-01,  6.40962986E-02, -3.88937857E-05,
                       1.18285810E-08, -1.46479639E-12, -9.55473307E+03,
                       2.34752956E+01]),
                NASA([1829.14, 5000.00],
                     [ 1.55815550E+01,  3.16049972E-02, -1.22495396E-05,
                       2.11773097E-09, -1.37578189E-13, -1.49903266E+04,
                      -5.71784952E+01])))

species(name=u'S(1670)',
        atoms='H:10 C:6',
        thermo=(NASA([100.00, 1122.78],
                     [ 1.46684845E+00,  4.71514066E-02, -9.42741723E-06,
                      -1.33221128E-08,  6.31961252E-12,  6.52798365E+03,
                       2.25047068E+01]),
                NASA([1122.78, 5000.00],
                     [ 9.99431999E+00,  3.35595364E-02, -1.36975193E-05,
                       2.53063892E-09, -1.75468327E-13,  3.55492255E+03,
                      -2.43352419E+01])))

species(name=u'C5H8(1798)',
        atoms='H:8 C:5',
        thermo=(NASA([100.00, 1049.25],
                     [ 2.01062155E+00,  3.15407187E-02,  2.07789480E-05,
                      -4.44088985E-08,  1.72419112E-11,  7.01383967E+03,
                       1.65768346E+01]),
                NASA([1049.25, 5000.00],
                     [ 1.14809937E+01,  2.45641673E-02, -1.08867259E-05,