units(length='cm', time='s', quantity='mol', act_energy='kcal/mol')

ideal_gas(name='gas',
          elements="H D T C Ci O Oi N Ne Ar He Si S Cl X",
          species="""n-heptane   Ar          He          Ne
                     N2          C2H4(2)     C4H8-1(3)   C4H8-2(4)
                     C4H6(7)     C6H8(9)     C3H6(24)    H2(47)
                     C8H10(78)   C8H12(254)  S(255)      C7H10(303)
                     S(421)      S(434)      C6H10(446)  C8H12(447)
                     C5H8c(515)  C2H6(617)   C6H10(619)  C8H12(623)
                     CH4(658)    C5H8g(673)  S(806)      S(808)
                     C6H10(864)  C9H14(908)  C4H8(910)   C6H10(914)
                     S(1487)     S(1676)     S(2069)     S(2070)
                     S(2076)     S(2097)     S(2544)     S(2651)
                     S(2781)     S(3261)     S(3446)     S(3501)
                     S(4098)     S(5456)     S(5859)     S(5866)""",
          reactions='gas-*',
          transport='Mix',
          initial_state=state(temperature=300.0, pressure=OneAtm))

ideal_interface(name='surface1',
                elements="H D T C Ci O Oi N Ne Ar He Si S Cl X",
                species="""X(1)        HX(5)       C2H3X(27)   allylX(28)
                          CH3X(29)    C2H5X(30)   C4H7X(31)   C4H7X(32)
                          C4H7X(33)   C4H7X(34)   C3H5X(35)   C4H5X(56)
                          C4H5X(57)   C6H9X(65)   C6H9X(66)   C6H7X(84)
                          C6H7X(85)   C6H7X(86)   C6H9X(118)  SX(123)
                          SX(124)     SX(145)     SX(149)     SX(150)
                          C6H7X(159)  C8H9X(201)  C8H9X(202)  C8H9X(203)
                          C8H9X(204)  SX(246)     C7H9X(248)  SX(272)
                          C6H9X(273)  SX(274)     SX(275)     SX(276)
                          SX(277)     SX(278)     SX(279)     SX(280)
                          SX(281)     SX(312)     C6H9X(313)  SX(314)
                          SX(315)     SX(316)     SX(317)     SX(375)
                          C8H9X(383)  SX(393)     SX(402)     C6H9X(439)
                          C5H7X(440)  SX(465)     SX(466)     SX(467)
                          SX(468)     SX(469)     C6H9X(520)  C6H9X(521)
                          C6H9X(720)  C6H9X(748)  C4H7X(775)  C3H5X(813)
                          SX(1022)    SX(1096)    SX(1275)    SX(1387)
                          SX(1478)    SX(1495)    SX(1524)    SX(1525)
                          SX(1526)    SX(1527)    SX(1528)    SX(1529)
                          SX(1654)    SX(1742)    SX(1743)    SX(1972)
                          SX(1973)    SX(2030)    SX(2034)    SX(2035)
                          SX(2045)    SX(2061)    SX(2066)    SX(2067)
                          SX(2081)    SX(2082)    SX(2087)    SX(2088)
                          SX(2121)    SX(2183)    SX(2185)    SX(2187)
                          SX(2188)    SX(2191)    SX(2192)    SX(2272)
                          SX(2273)    SX(2282)    SX(2283)    SX(2295)
                          SX(2318)    SX(2342)    SX(2368)    SX(2369)
                          SX(2513)    SX(2526)    SX(2527)    SX(2530)
                          SX(2531)    SX(2532)    SX(2536)    SX(2551)
                          SX(2552)    SX(2554)    SX(2555)    SX(2556)
                          SX(2557)    SX(2637)    SX(2649)    SX(2675)
                          SX(2678)    SX(2679)    SX(2745)    SX(2763)
                          SX(2776)    SX(2791)    SX(2792)    SX(2796)
                          SX(2797)    SX(2798)    SX(2851)    SX(2968)
                          SX(3165)    SX(3169)    SX(3170)    SX(3226)
                          SX(3271)    SX(3273)    SX(3274)    SX(3278)
                          SX(3279)    SX(3280)    SX(3320)    SX(3431)
                          SX(3443)    SX(3444)    SX(3449)    SX(3451)
                          SX(3846)    SX(3856)    SX(4093)    SX(4105)
                          SX(4107)    SX(4108)    SX(4110)    SX(4111)
                          SX(4149)    SX(4156)    SX(4175)    SX(4176)
                          SX(4184)    SX(4196)    SX(4214)    SX(4217)
                          SX(4227)    SX(4352)    SX(4366)    SX(4382)
                          SX(4383)    SX(5040)    SX(5041)    SX(5046)
                          SX(5047)    SX(5048)    SX(5157)    SX(5159)
                          SX(5411)    SX(5412)    SX(5839)    SX(6002)
                          SX(6004)    SX(6005)    SX(6088)    SX(6201)
                          SX(6230)""",
                site_density=2.72e-09,
                phases="gas",
          reactions='surface1-*',
                initial_state=state(temperature=300.0, pressure=OneAtm))

#-------------------------------------------------------------------------------
# Element data
#-------------------------------------------------------------------------------

element(symbol=u'X', atomic_mass=195.083)
element(symbol=u'Ci', atomic_mass=13.003)
element(symbol=u'D', atomic_mass=2.014)
element(symbol=u'Oi', atomic_mass=18.0)
element(symbol=u'T', atomic_mass=3.016)
#-------------------------------------------------------------------------------
# Species data
#-------------------------------------------------------------------------------

species(name=u'n-heptane',
        atoms='H:16 C:7',
        thermo=(NASA([100.00, 1262.73],
                     [-2.91681405E-03,  7.69373649E-02, -3.48025563E-05,
                       1.86095180E-09,  2.01573617E-12, -2.57829342E+04,
                       3.00312148E+01]),
                NASA([1262.73, 5000.00],
                     [ 1.38377915E+01,  4.85945016E-02, -1.95474548E-05,
                       3.52837178E-09, -2.39064676E-13, -3.05141556E+04,
                      -4.48642836E+01])),
        transport=gas_transport(geom='nonlinear',
                                diam=6.366,
                                well_depth=402.997))

species(name=u'Ar',
        atoms='Ar:1',
        thermo=(NASA([200.00, 1000.00],
                     [ 2.50000000E+00,  0.00000000E+00,  0.00000000E+00,
                       0.00000000E+00,  0.00000000E+00, -7.45375000E+02,
                       4.37967000E+00]),
                NASA([1000.00, 6000.00],
                     [ 2.50000000E+00,  0.00000000E+00,  0.00000000E+00,
                       0.00000000E+00,  0.00000000E+00, -7.45375000E+02,
                       4.37967000E+00])),
        transport=gas_transport(geom='atom',
                                diam=3.33,
                                well_depth=136.5))

species(name=u'He',
        atoms='He:1',
        thermo=(NASA([200.00, 1000.00],
                     [ 2.50000000E+00,  0.00000000E+00,  0.00000000E+00,
                       0.00000000E+00,  0.00000000E+00, -7.45375000E+02,
                       9.28724000E-01]),
                NASA([1000.00, 6000.00],
                     [ 2.50000000E+00,  0.00000000E+00,  0.00000000E+00,
                       0.00000000E+00,  0.00000000E+00, -7.45375000E+02,
                       9.28724000E-01])),
        transport=gas_transport(geom='atom',
                                diam=2.576,
                                well_depth=10.2))

species(name=u'Ne',
        atoms='Ne:1',
        thermo=(NASA([200.00, 1000.00],
                     [ 2.50000000E+00,  0.00000000E+00,  0.00000000E+00,
                       0.00000000E+00,  0.00000000E+00, -7.45375000E+02,
                       3.35532000E+00]),
                NASA([1000.00, 6000.00],
                     [ 2.50000000E+00,  0.00000000E+00,  0.00000000E+00,
                       0.00000000E+00,  0.00000000E+00, -7.45375000E+02,
                       3.35532000E+00])),
        transport=gas_transport(geom='atom',
                                diam=3.758,
                                well_depth=148.6))

species(name=u'N2',
        atoms='N:2',
        thermo=(NASA([200.00, 1000.00],
                     [ 3.53101000E+00, -1.23661000E-04, -5.02999000E-07,
                       2.43531000E-09, -1.40881000E-12, -1.04698000E+03,
                       2.96747000E+00]),
                NASA([1000.00, 6000.00],
                     [ 2.95258000E+00,  1.39690000E-03, -4.92632000E-07,
                       7.86010000E-11, -4.60755000E-15, -9.23949000E+02,
                       5.87189000E+00])),
        transport=gas_transport(geom='linear',
                                diam=3.621,
                                well_depth=97.53,
                                polar=1.76,
                                rot_relax=4.0))

species(name=u'C2H4(2)',
        atoms='H:4 C:2',
        thermo=(NASA([100.00, 979.36],
                     [ 3.97471606E+00, -4.75844285E-03,  4.16783770E-05,
                      -4.51392516E-08,  1.54224761E-11,  4.91540746E+03,
                       3.62430844E+00]),
                NASA([979.36, 5000.00],
                     [ 3.55660610E+00,  1.10627464E-02, -4.17019079E-06,
                       7.85586770E-10, -5.70060829E-14,  4.32046489E+03,
                       2.17719479E+00])),
        transport=gas_transport(geom='nonlinear',
                                diam=3.971,
                                well_depth=280.8,
                                rot_relax=1.5))

species(name=u'C4H8-1(3)',
        atoms='H:8 C:4',
        thermo=(NASA([100.00, 1007.28],
                     [ 2.58772906E+00,  2.32777969E-02,  1.93412349E-05,
                      -3.55496333E-08,  1.36906009E-11, -1.91872926E+03,
                       1.45750618E+01]),
                NASA([1007.28, 5000.00],
                     [ 7.20517168E+00,  2.36361568E-02, -9.03150028E-06,
                       1.65392666E-09, -1.16019260E-13, -3.79733937E+03,
                      -1.24426257E+01])),
        transport=gas_transport(geom='nonlinear',
                                diam=5.176,
                                well_depth=357.002,
                                rot_relax=1.0))

species(name=u'C4H8-2(4)',
        atoms='H:8 C:4',
        thermo=(NASA([100.00, 1157.79],
                     [ 2.51998327E+00,  2.76812799E-02,  9.43783469E-07,
                      -1.25009101E-08,  4.67144666E-12, -3.34374767E+03,
                       1.30195623E+01]),
                NASA([1157.79, 5000.00],
                     [ 6.04225708E+00,  2.60072350E-02, -1.04843374E-05,
                       1.90880922E-09, -1.30600505E-13, -4.86276511E+03,
                      -7.52715109E+00])),
        transport=gas_transport(geom='nonlinear',
                                diam=5.289,
                                well_depth=359.053))

species(name=u'C4H6(7)',
        atoms='H:6 C:4',
        thermo=(NASA([100.00, 946.05],
                     [ 2.80599310E+00,  1.02584471E-02,  6.17260255E-05,
                      -9.01642687E-08,  3.59116961E-11,  1.16584972E+04,
                       1.20621434E+01]),
                NASA([946.05, 5000.00],
                     [ 1.24693720E+01,  1.00553901E-02, -2.41206872E-06,
                       4.57077303E-10, -3.93160571E-14,  8.01077795E+03,
                      -4.36374720E+01])),
        transport=gas_transport(geom='nonlinear',
                                diam=5.18,
                                well_depth=357.002,
                                rot_relax=1.0))

species(name=u'C6H8(9)',
        atoms='H:8 C:6',
        thermo=(NASA([100.00, 941.22],
                     [ 1.38427980E+00,  4.14411503E-02,  1.94287417E-05,
                      -6.16688700E-08,  2.86503633E-11,  1.76317461E+04,
                       1.93257509E+01]),
                NASA([941.22, 5000.00],
                     [ 1.69619680E+01,  1.57221707E-02, -4.10118367E-06,
                       6.95736344E-10, -5.26521484E-14,  1.29061672E+04,
                      -6.44097553E+01])),
        transport=gas_transport(geom='nonlinear',
                                diam=5.514,
                                well_depth=396.052))

species(name=u'C3H6(24)',
        atoms='H:6 C:3',
        thermo=(NASA([100.00, 983.75],
                     [ 3.31912102E+00,  8.17958674E-03,  3.34736123E-05,
                      -4.36193684E-08,  1.58213364E-11,  7.49325328E+02,
                       9.54025058E+00]),
                NASA([983.75, 5000.00],
                     [ 5.36755173E+00,  1.70743019E-02, -6.35107626E-06,
                       1.16619529E-09, -8.27620279E-14, -4.87138326E+02,
                      -4.54467529E+00])),
        transport=gas_transport(geom='nonlinear',
                                diam=4.982,
                                well_depth=266.801,
                                rot_relax=1.0))

species(name=u'H2(47)',
        atoms='H:2',
        thermo=(NASA([100.00, 1959.08],
                     [ 3.43536412E+00,  2.12710353E-04, -2.78625043E-07,
                       3.40267167E-10, -7.76031998E-14, -1.03135984E+03,
                      -3.90841732E+00]),
                NASA([1959.08, 5000.00],
                     [ 2.78816583E+00,  5.87640942E-04,  1.59010417E-07,
                      -5.52739026E-11,  4.34310984E-15, -5.96144270E+02,
                       1.12732655E-01])),
        transport=gas_transport(geom='linear',
                                diam=2.833,
                                well_depth=59.7))

species(name=u'C8H10(78)',
        atoms='H:10 C:8',
        thermo=(NASA([100.00, 941.38],
                     [ 8.64508879E-02,  6.59507123E-02,  1.49007776E-06,
                      -6.06862449E-08,  3.13845046E-11,  2.39088929E+04,
                       2.66192822E+01]),
                NASA([941.38, 5000.00],
                     [ 2.28417755E+01,  1.96704891E-02, -5.08803462E-06,
                       8.53682038E-10, -6.42382395E-14,  1.73909786E+04,
                      -9.36509497E+01])),
        transport=gas_transport(geom='nonlinear',
                                diam=6.008,
                                well_depth=441.329))

species(name=u'C8H12(254)',
        atoms='H:12 C:8',
        thermo=(NASA([100.00, 966.56],
                     [-1.28183216E-01,  7.35572918E-02, -1.44333618E-05,
                      -3.89698452E-08,  2.17299794E-11,  1.04422483E+04,
                       2.89601759E+01]),
                NASA([966.56, 5000.00],
                     [ 2.02785414E+01,  2.99584765E-02, -1.01704686E-05,
                       1.81720743E-09, -1.29537878E-13,  4.58909334E+03,
                      -7.86679341E+01])),
        transport=gas_transport(geom='nonlinear',
                                diam=6.171,
                                well_depth=433.47))

species(name=u'S(255)',
        atoms='H:14 C:10',
        thermo=(NASA([100.00, 988.70],
                     [-1.28102885E+00,  9.73401935E-02, -3.96908570E-05,
                      -2.28883979E-08,  1.70599250E-11,  2.01333918E+04,
                       3.80613736E+01]),
                NASA([988.70, 5000.00],
                     [ 2.35618068E+01,  3.86218834E-02, -1.40063814E-05,
                       2.54246809E-09, -1.80004061E-13,  1.31784885E+04,
                      -9.18377566E+01])),
        transport=gas_transport(geom='nonlinear',
                                diam=6.588,
                                well_depth=467.343))

species(name=u'C7H10(303)',
        atoms='H:10 C:7',
        thermo=(NASA([100.00, 960.58],
                     [ 5.40181259E-01,  6.14551349E-02, -1.12030877E-05,
                      -3.44223146E-08,  1.91302393E-11,  1.31395193E+04,
                       2.36489181E+01]),
                NASA([960.58, 5000.00],
                     [ 1.78943603E+01,  2.43013009E-02, -8.01425042E-06,
                       1.41741320E-09, -1.01048701E-13,  8.18561381E+03,
                      -6.78088657E+01])),
        transport=gas_transport(geom='nonlinear',
                                diam=5.856,
                                well_depth=416.37))

species(name=u'S(421)',
        atoms='H:14 C:10',
        thermo=(NASA([100.00, 961.89],
                     [-1.42693031E+00,  9.80798513E-02, -3.24289130E-05,
                      -3.78943330E-08,  2.44147904E-11,  1.67194334E+04,
                       3.62568687E+01]),
                NASA([961.89, 5000.00],
                     [ 2.61537984E+01,  3.39139966E-02, -1.11612519E-05,
                       1.97604397E-09, -1.41195490E-13,  9.07598537E+03,
                      -1.07883190E+02])),
        transport=gas_transport(geom='nonlinear',
                                diam=6.659,
                                well_depth=477.149))

species(name=u'S(434)',
        atoms='H:14 C:10',
        thermo=(NASA([100.00, 961.89],
                     [-1.42693031E+00,  9.80798513E-02, -3.24289130E-05,
                      -3.78943330E-08,  2.44147904E-11,  1.67194334E+04,
                       3.62568687E+01]),
                NASA([961.89, 5000.00],
                     [ 2.61537984E+01,  3.39139966E-02, -1.11612519E-05,
                       1.97604397E-09, -1.41195490E-13,  9.07598537E+03,
                      -1.07883190E+02])),
        transport=gas_transport(geom='nonlinear',
                                diam=6.659,
                                well_depth=477.149))

species(name=u'C6H10(446)',
        atoms='H:10 C:6',
        thermo=(NASA([100.00, 1020.63],
                     [ 9.97427413E-01,  5.59777045E-02, -2.05880600E-05,
                      -1.17182304E-08,  8.13452041E-12,  6.30749855E+03,
                       2.38941836E+01]),
                NASA([1020.63, 5000.00],
                     [ 1.33828218E+01,  2.83661253E-02, -1.07663110E-05,
                       1.95749020E-09, -1.36589418E-13,  2.68926840E+03,
                      -4.14511818E+01])),
        transport=gas_transport(geom='nonlinear',
                                diam=5.673,
                                well_depth=388.08))

species(name=u'C8H12(447)',
        atoms='H:12 C:8',
        thermo=(NASA([100.00, 1002.94],
                     [ 1.69489980E-02,  7.28189377E-02, -2.16585698E-05,
                      -2.40807783E-08,  1.44597041E-11,  1.38562447E+04,
                       3.07679077E+01]),
                NASA([1002.94, 5000.00],
                     [ 1.77276883E+01,  3.45993801E-02, -1.29781828E-05,
                       2.37500136E-09, -1.67643536E-13,  8.67334638E+03,
                      -6.28559377E+01])),
        transport=gas_transport(geom='nonlinear',
                                diam=6.098,
                                well_depth=423.433))

species(name=u'C5H8c(515)',
        atoms='H:8 C:5',
        thermo=(NASA([100.00, 1004.86],
                     [ 1.98273955E+00,  3.49998332E-02,  6.98515281E-06,
                      -3.05031334E-08,  1.32246652E-11,  6.96521034E+03,
                       1.60818191E+01]),
                NASA([1004.86, 5000.00],
                     [ 1.01246420E+01,  2.42323877E-02, -9.24886971E-06,
                       1.70115950E-09, -1.20059732E-13,  4.23624320E+03,
                      -2.86745770E+01])),
        transport=gas_transport(geom='nonlinear',
                                diam=5.354,
                                well_depth=369.973))

species(name=u'C2H6(617)',
        atoms='H:6 C:2',
        thermo=(NASA([100.00, 1012.42],
                     [ 3.72239291E+00,  1.65083841E-03,  3.44175530E-05,
                      -3.76858229E-08,  1.24450657E-11, -1.15575901E+04,
                       4.68247999E+00]),
                NASA([1012.42, 5000.00],
                     [ 2.82848257E+00,  1.73040568E-02, -6.73334245E-06,
                       1.23742024E-09, -8.65676410E-14, -1.19978080E+04,
                       5.93811707E+00])),
        transport=gas_transport(geom='nonlinear',
                                diam=4.302,
                                well_depth=252.3,
                                rot_relax=1.5))

species(name=u'C6H10(619)',
        atoms='H:10 C:6',
        thermo=(NASA([100.00, 1045.42],
                     [ 1.54967147E+00,  4.21895837E-02,  1.04895346E-05,
                      -3.69750926E-08,  1.50988524E-11,  6.71774665E+03,
                       2.39491991E+01]),
                NASA([1045.42, 5000.00],
                     [ 1.12124240E+01,  3.19133588E-02, -1.30691489E-05,
                       2.47430092E-09, -1.76160956E-13,  3.23863001E+03,
                      -3.00742335E+01])),
        transport=gas_transport(geom='nonlinear',
                                diam=5.721,
                                well_depth=395.658))

species(name=u'C8H12(623)',
        atoms='H:12 C:8',
        thermo=(NASA([100.00, 966.56],
                     [-1.28183216E-01,  7.35572918E-02, -1.44333618E-05,
                      -3.89698452E-08,  2.17299794E-11,  1.04422483E+04,
                       2.89601759E+01]),
                NASA([966.56, 5000.00],
                     [ 2.02785414E+01,  2.99584765E-02, -1.01704686E-05,
                       1.81720743E-09, -1.29537878E-13,  4.58909334E+03,
                      -7.86679341E+01])),
        transport=gas_transport(geom='nonlinear',
                                diam=6.171,
                                well_depth=433.47))

species(name=u'CH4(658)',
        atoms='H:4 C:1',
        thermo=(NASA([100.00, 1084.12],
                     [ 4.20541524E+00, -5.35557362E-03,  2.51123265E-05,
                      -2.13762843E-08,  5.97523937E-12, -1.01619433E+04,
                      -9.21279283E-01]),
                NASA([1084.12, 5000.00],
                     [ 9.08265721E-01,  1.14540858E-02, -4.57173828E-06,
                       8.29191671E-10, -5.66314895E-14, -9.71997444E+03,
                       1.39930944E+01])),
        transport=gas_transport(geom='nonlinear',
                                diam=3.746,
                                well_depth=141.4,
                                polar=2.6,
                                rot_relax=13.0))

species(name=u'C5H8g(673)',
        atoms='H:8 C:5',
        thermo=(NASA([100.00, 1049.25],
                     [ 2.01062155E+00,  3.15407187E-02,  2.07789480E-05,
                      -4.44088985E-08,  1.72419112E-11,  7.01383967E+03,
                       1.65768346E+01]),
                NASA([1049.25, 5000.00],
                     [ 1.14809937E+01,  2.45641673E-02, -1.08867259E-05,
                       2.16707025E-09, -1.59145781E-13,  3.42314914E+03,
                      -3.72078866E+01])),
        transport=gas_transport(geom='nonlinear',
                                diam=5.404,
                                well_depth=377.736))

species(name=u'S(806)',
        atoms='H:16 C:10',
        thermo=(NASA([100.00, 996.21],
                     [-1.66222393E+00,  1.05913735E-01, -4.90518701E-05,
                      -1.54471216E-08,  1.45435417E-11,  3.25368421E+03,
                       3.72864712E+01]),
                NASA([996.21, 5000.00],
                     [ 2.37730101E+01,  4.38978636E-02, -1.60708071E-05,
                       2.89916239E-09, -2.03170384E-13, -3.80453052E+03,
                      -9.53173115E+01])),
        transport=gas_transport(geom='nonlinear',
                                diam=6.819,
                                well_depth=469.576))

species(name=u'S(808)',
        atoms='H:18 C:12',
        thermo=(NASA([100.00, 1022.08],
                     [-2.83293319E+00,  1.29890428E-01, -7.48942758E-05,
                       1.23239123E-09,  9.69990641E-12,  1.29456085E+04,
                       4.71458748E+01]),
                NASA([1022.08, 5000.00],
                     [ 2.72295490E+01,  5.22755495E-02, -1.97455851E-05,
                       3.58698306E-09, -2.50569805E-13,  4.70911362E+03,
                      -1.08775109E+02])),
        transport=gas_transport(geom='nonlinear',
                                diam=7.234,
                                well_depth=502.604))

species(name=u'C6H10(864)',
        atoms='H:10 C:6',
        thermo=(NASA([100.00, 1036.89],
                     [ 1.50874221E+00,  4.27939676E-02,  1.00407781E-05,
                      -3.76644958E-08,  1.56320088E-11,  7.74480595E+03,
                       2.33493905E+01]),
                NASA([1036.89, 5000.00],
                     [ 1.16601041E+01,  3.10397815E-02, -1.26024374E-05,
                       2.38495409E-09, -1.70150727E-13,  4.16633351E+03,
                      -3.30972272E+01])),
        transport=gas_transport(geom='nonlinear',
                                diam=5.648,
                                well_depth=385.401))

species(name=u'C9H14(908)',
        atoms='H:14 C:9',
        thermo=(NASA([100.00, 994.73],
                     [-9.92774361E-01,  9.38016346E-02, -4.58023701E-05,
                      -1.08977317E-08,  1.19292688E-11,  5.95090696E+03,
                       3.26643004E+01]),
                NASA([994.73, 5000.00],
                     [ 2.13698347E+01,  3.82719243E-02, -1.39321680E-05,
                       2.50344607E-09, -1.75014812E-13, -1.99685295E+02,
                      -8.36575092E+01])),
        transport=gas_transport(geom='nonlinear',
                                diam=6.508,
                                well_depth=453.024))

species(name=u'C4H8(910)',
        atoms='H:8 C:4',
        thermo=(NASA([100.00, 1061.33],
                     [ 2.52504770E+00,  2.64752782E-02,  7.08359238E-06,
                      -2.07731462E-08,  8.00430055E-12, -4.02607130E+03,
                       1.28857274E+01]),
                NASA([1061.33, 5000.00],
                     [ 6.48672669E+00,  2.49943921E-02, -9.83283171E-06,
                       1.79343299E-09, -1.24008235E-13, -5.62452310E+03,
                      -1.00316397E+01])),
        transport=gas_transport(geom='nonlinear',
                                diam=5.238,
                                well_depth=351.146))

species(name=u'C6H10(914)',
        atoms='H:10 C:6',
        thermo=(NASA([100.00, 1020.63],
                     [ 9.97427413E-01,  5.59777045E-02, -2.05880600E-05,
                      -1.17182304E-08,  8.13452041E-12,  6.30749855E+03,
                       2.38941836E+01]),
                NASA([1020.63, 5000.00],
                     [ 1.33828218E+01,  2.83661253E-02, -1.07663110E-05,
                       1.95749020E-09, -1.36589418E-13,  2.68926840E+03,
                      -4.14511818E+01])),
        transport=gas_transport(geom='nonlinear',
                                diam=5.673,
                                well_depth=388.08))

species(name=u'S(1487)',
        atoms='H:14 C:10',
        thermo=(NASA([100.00, 996.17],
                     [-1.40484009E+00,  1.01563983E-01, -5.26982344E-05,
                      -8.95924912E-09,  1.20629221E-11,  1.84520053E+04,
                       3.70450641E+01]),
                NASA([996.17, 5000.00],
                     [ 2.33617794E+01,  3.90818563E-02, -1.42761516E-05,
                       2.57812553E-09, -1.81029820E-13,  1.16835351E+04,
                      -9.15504001E+01])),
        transport=gas_transport(geom='nonlinear',
                                diam=6.613,
                                well_depth=470.051))

species(name=u'S(1676)',
        atoms='H:12 C:8',
        thermo=(NASA([100.00, 1016.52],
                     [-1.10429280E-01,  7.70814645E-02, -3.47833140E-05,
                      -1.00302869E-08,  9.42640217E-12,  1.21750142E+04,
                       2.97645889E+01]),
                NASA([1016.52, 5000.00],
                     [ 1.75623558E+01,  3.50022757E-02, -1.32158186E-05,
                       2.40320183E-09, -1.68059077E-13,  7.16317806E+03,
                      -6.27651255E+01])),
        transport=gas_transport(geom='nonlinear',
                                diam=6.124,
                                well_depth=426.137))

species(name=u'S(2069)',
        atoms='H:16 C:10',
        thermo=(NASA([100.00, 996.21],
                     [-1.66222393E+00,  1.05913735E-01, -4.90518701E-05,
                      -1.54471216E-08,  1.45435417E-11,  3.25368421E+03,
                       3.79796184E+01]),
                NASA([996.21, 5000.00],
                     [ 2.37730101E+01,  4.38978636E-02, -1.60708071E-05,
                       2.89916239E-09, -2.03170384E-13, -3.80453052E+03,
                      -9.46241644E+01])),
        transport=gas_transport(geom='nonlinear',
                                diam=6.819,
                                well_depth=469.576))

species(name=u'S(2070)',
        atoms='H:14 C:9',
        thermo=(NASA([100.00, 994.73],
                     [-9.92774361E-01,  9.38016346E-02, -4.58023701E-05,
                      -1.08977317E-08,  1.19292688E-11,  5.95090696E+03,
                       3.26643004E+01]),
                NASA([994.73, 5000.00],
                     [ 2.13698347E+01,  3.82719243E-02, -1.39321680E-05,
                       2.50344607E-09, -1.75014812E-13, -1.99685295E+02,
                      -8.36575092E+01])),
        transport=gas_transport(geom='nonlinear',
                                diam=6.508,
                                well_depth=453.024))

species(name=u'S(2076)',
        atoms='H:18 C:12',
        thermo=(NASA([100.00, 1022.08],
                     [-2.83293319E+00,  1.29890428E-01, -7.48942758E-05,
                       1.23239123E-09,  9.69990641E-12,  1.29456085E+04,
                       4.71458748E+01]),
                NASA([1022.08, 5000.00],
                     [ 2.72295490E+01,  5.22755495E-02, -1.97455851E-05,
                       3.58698306E-09, -2.50569805E-13,  4.70911362E+03,
                      -1.08775109E+02])),
        transport=gas_transport(geom='nonlinear',
                                diam=7.234,
                                well_depth=502.604))

species(name=u'S(2097)',
        atoms='H:18 C:12',
        thermo=(NASA([100.00, 1022.08],