units(length='cm', time='s', quantity='mol', act_energy='kcal/mol')

ideal_gas(name='gas',
          elements="H D T C Ci O Oi N Ne Ar He Si S Cl X",
          species="""n-heptane   Ar          He          Ne
                     N2          C2H4(2)     C4H8-1(3)   C4H8-2(4)
                     H2(68)      C2H6(107)   C4H10(111)  CH4(118)
                     C3H8(138)   C5H12(214)  C6H14(220)  C5H12(230)
                     C4H10(233)  C6H14(240)  C6H14(241)  C7H16(254)
                     C6H14(264)  C7H16(272)  C7H16(273)  C7H16(290)
                     C6H14(303)  S(1185)""",
          reactions='gas-*',
          initial_state=state(temperature=300.0, pressure=OneAtm))

ideal_interface(name='surface1',
                elements="H D T C Ci O Oi N Ne Ar He Si S Cl X",
                species="""X(1)        HX(5)       C2H3X(37)   allylX(38)
                          CH3X(39)    C2H5X(40)   C4H7X(41)   C4H7X(42)
                          C4H7X(43)   C4H7X(44)   C3H5X(45)   C4H9X(64)
                          C4H9X(65)   C2H2X(70)   C6H11X(72)  C6H11X(73)
                          CH2X(74)    C2H4X(84)   C6H11X(86)  C8H15X(88)
                          C8H15X(89)  C4H7X(95)   C6H11X(96)  C8H15X(98)
                          C8H15X(99)  SX(104)     SX(105)     SX(106)
                          C3H5X(115)  C3H7X(131)  SX(132)     SX(133)
                          SX(134)     SX(180)     SX(182)     SX(183)
                          CHX(193)    C3H7X(205)  SX(207)     SX(208)
                          SX(209)     SX(210)     SX(223)     SX(224)
                          SX(225)     SX(226)     C4H9X(238)  SX(242)
                          SX(243)     SX(244)     SX(245)     SX(257)
                          SX(258)     SX(259)     SX(260)     SX(265)
                          C4H9X(276)  SX(278)     SX(279)     SX(280)
                          SX(281)     SX(285)     SX(295)     SX(296)
                          SX(297)     SX(298)     SX(304)     SX(311)
                          SX(322)     SX(326)     SX(327)     SX(328)
                          SX(329)     SX(330)     SX(333)     SX(347)
                          SX(355)     SX(356)     SX(359)     SX(362)
                          SX(375)     SX(386)     SX(389)     SX(404)
                          SX(412)     SX(416)     SX(419)     SX(435)
                          SX(443)     SX(449)     SX(452)     SX(461)
                          SX(474)     SX(482)     SX(495)     SX(509)
                          SX(523)     SX(530)     SX(531)     SX(540)
                          SX(543)     SX(550)     SX(556)     SX(572)
                          SX(586)     SX(592)     SX(593)     SX(603)
                          SX(606)     SX(615)     SX(622)     SX(630)
                          SX(643)     SX(660)     SX(668)     SX(669)
                          SX(682)     SX(684)     SX(700)     SX(708)
                          SX(709)     SX(722)     SX(725)     SX(733)
                          SX(739)     SX(746)     SX(762)     SX(778)
                          SX(785)     SX(802)     SX(822)     SX(840)
                          SX(853)     SX(874)     SX(888)     SX(892)
                          SX(893)     SX(1139)    SX(1140)    SX(1156)
                          SX(1202)    SX(1239)    SX(1274)    SX(1290)
                          SX(1321)    SX(1337)    SX(1375)    SX(1412)
                          SX(1559)    SX(1619)    SX(1716)    SX(1795)
                          SX(1914)    SX(1999)    SX(2016)    SX(2070)
                          SX(2086)    SX(2189)    SX(2348)    SX(2407)
                          SX(2527)    SX(2590)    SX(2706)    SX(2824)
                          SX(2986)    SX(3110)    SX(3196)    SX(3318)
                          SX(3319)    SX(3398)    SX(3490)    SX(3491)
                          SX(3548)    SX(3636)    SX(3725)    SX(3784)
                          SX(3785)    SX(4082)    SX(4230)    SX(4333)
                          SX(4343)    SX(4714)    SX(4804)    SX(5461)
                          SX(5810)    SX(5881)    SX(5953)    SX(5963)
                          SX(6074)    SX(6146)    SX(6616)    SX(6876)
                          SX(7402)    SX(7538)    SX(8168)    SX(8394)
                          SX(8395)    SX(10897)   SX(12618)   SX(12619)
                          SX(12622)   SX(12770)   SX(12785)   SX(12936)
                          SX(12937)   SX(12939)   SX(12941)   SX(12942)
                          SX(12961)   SX(13302)   SX(13305)   SX(13321)
                          SX(13474)   SX(13477)   SX(13493)   SX(13654)
                          SX(13807)   SX(14180)   SX(14810)   SX(14811)
                          SX(14812)   SX(14971)   SX(14993)   SX(15164)
                          SX(15165)   SX(15359)   SX(15360)   SX(15755)
                          SX(15773)   SX(15947)   SX(16110)   SX(16509)
                          SX(16713)   SX(16733)   SX(16913)   SX(17111)
                          SX(17112)   SX(17114)   SX(17135)   SX(17521)
                          SX(17522)   SX(17523)   SX(17548)   SX(17936)
                          SX(18148)   SX(19300)   SX(19695)   SX(19696)
                          SX(20129)   SX(20152)   SX(21524)   SX(22676)
                          SX(22908)   SX(22909)   SX(23603)   SX(24926)
                          SX(24927)   SX(24928)   SX(25131)   SX(25132)
                          SX(25133)   SX(25614)   SX(25615)   SX(25616)
                          SX(26309)   SX(26806)   SX(26807)   SX(26808)
                          SX(28028)   SX(29782)   SX(29783)   SX(30296)
                          SX(30297)   SX(30298)   SX(32282)   SX(32283)
                          SX(32784)   SX(33868)   SX(34139)""",
                site_density=2.72e-09,
                phases="gas",
          reactions='surface1-*',
                initial_state=state(temperature=300.0, pressure=OneAtm))

#-------------------------------------------------------------------------------
# Element data
#-------------------------------------------------------------------------------

element(symbol=u'X', atomic_mass=195.083)
element(symbol=u'Ci', atomic_mass=13.003)
element(symbol=u'D', atomic_mass=2.014)
element(symbol=u'Oi', atomic_mass=18.0)
element(symbol=u'T', atomic_mass=3.016)
#-------------------------------------------------------------------------------
# Species data
#-------------------------------------------------------------------------------

species(name=u'n-heptane',
        atoms='H:16 C:7',
        thermo=(NASA([100.00, 1262.73],
                     [-2.91681405E-03,  7.69373649E-02, -3.48025563E-05,
                       1.86095180E-09,  2.01573617E-12, -2.57829342E+04,
                       3.00312148E+01]),
                NASA([1262.73, 5000.00],
                     [ 1.38377915E+01,  4.85945016E-02, -1.95474548E-05,
                       3.52837178E-09, -2.39064676E-13, -3.05141556E+04,
                      -4.48642836E+01])))

species(name=u'Ar',
        atoms='Ar:1',
        thermo=(NASA([200.00, 1000.00],
                     [ 2.50000000E+00,  0.00000000E+00,  0.00000000E+00,
                       0.00000000E+00,  0.00000000E+00, -7.45375000E+02,
                       4.37967000E+00]),
                NASA([1000.00, 6000.00],
                     [ 2.50000000E+00,  0.00000000E+00,  0.00000000E+00,
                       0.00000000E+00,  0.00000000E+00, -7.45375000E+02,
                       4.37967000E+00])))

species(name=u'He',
        atoms='He:1',
        thermo=(NASA([200.00, 1000.00],
                     [ 2.50000000E+00,  0.00000000E+00,  0.00000000E+00,
                       0.00000000E+00,  0.00000000E+00, -7.45375000E+02,
                       9.28724000E-01]),
                NASA([1000.00, 6000.00],
                     [ 2.50000000E+00,  0.00000000E+00,  0.00000000E+00,
                       0.00000000E+00,  0.00000000E+00, -7.45375000E+02,
                       9.28724000E-01])))

species(name=u'Ne',
        atoms='Ne:1',
        thermo=(NASA([200.00, 1000.00],
                     [ 2.50000000E+00,  0.00000000E+00,  0.00000000E+00,
                       0.00000000E+00,  0.00000000E+00, -7.45375000E+02,
                       3.35532000E+00]),
                NASA([1000.00, 6000.00],
                     [ 2.50000000E+00,  0.00000000E+00,  0.00000000E+00,
                       0.00000000E+00,  0.00000000E+00, -7.45375000E+02,
                       3.35532000E+00])))

species(name=u'N2',
        atoms='N:2',
        thermo=(NASA([200.00, 1000.00],
                     [ 3.53101000E+00, -1.23661000E-04, -5.02999000E-07,
                       2.43531000E-09, -1.40881000E-12, -1.04698000E+03,
                       2.96747000E+00]),
                NASA([1000.00, 6000.00],
                     [ 2.95258000E+00,  1.39690000E-03, -4.92632000E-07,
                       7.86010000E-11, -4.60755000E-15, -9.23949000E+02,
                       5.87189000E+00])))

species(name=u'C2H4(2)',
        atoms='H:4 C:2',
        thermo=(NASA([100.00, 979.36],
                     [ 3.97471606E+00, -4.75844285E-03,  4.16783770E-05,
                      -4.51392516E-08,  1.54224761E-11,  4.91540746E+03,
                       3.62430844E+00]),
                NASA([979.36, 5000.00],
                     [ 3.55660610E+00,  1.10627464E-02, -4.17019079E-06,
                       7.85586770E-10, -5.70060829E-14,  4.32046489E+03,
                       2.17719479E+00])))

species(name=u'C4H8-1(3)',
        atoms='H:8 C:4',
        thermo=(NASA([100.00, 1007.28],
                     [ 2.58772906E+00,  2.32777969E-02,  1.93412349E-05,
                      -3.55496333E-08,  1.36906009E-11, -1.91872926E+03,
                       1.45750618E+01]),
                NASA([1007.28, 5000.00],
                     [ 7.20517168E+00,  2.36361568E-02, -9.03150028E-06,
                       1.65392666E-09, -1.16019260E-13, -3.79733937E+03,
                      -1.24426257E+01])))

species(name=u'C4H8-2(4)',
        atoms='H:8 C:4',
        thermo=(NASA([100.00, 1157.79],
                     [ 2.51998327E+00,  2.76812799E-02,  9.43783469E-07,
                      -1.25009101E-08,  4.67144666E-12, -3.34374767E+03,
                       1.30195623E+01]),
                NASA([1157.79, 5000.00],
                     [ 6.04225708E+00,  2.60072350E-02, -1.04843374E-05,
                       1.90880922E-09, -1.30600505E-13, -4.86276511E+03,
                      -7.52715109E+00])))

species(name=u'H2(68)',
        atoms='H:2',
        thermo=(NASA([100.00, 1959.08],
                     [ 3.43536412E+00,  2.12710353E-04, -2.78625043E-07,
                       3.40267167E-10, -7.76031998E-14, -1.03135984E+03,
                      -3.90841732E+00]),
                NASA([1959.08, 5000.00],
                     [ 2.78816583E+00,  5.87640942E-04,  1.59010417E-07,
                      -5.52739026E-11,  4.34310984E-15, -5.96144270E+02,
                       1.12732655E-01])))

species(name=u'C2H6(107)',
        atoms='H:6 C:2',
        thermo=(NASA([100.00, 1012.42],
                     [ 3.72239291E+00,  1.65083841E-03,  3.44175530E-05,
                      -3.76858229E-08,  1.24450657E-11, -1.15575901E+04,
                       4.68247999E+00]),
                NASA([1012.42, 5000.00],
                     [ 2.82848257E+00,  1.73040568E-02, -6.73334245E-06,
                       1.23742024E-09, -8.65676410E-14, -1.19978080E+04,
                       5.93811707E+00])))

species(name=u'C4H10(111)',
        atoms='H:10 C:4',
        thermo=(NASA([100.00, 1147.60],
                     [ 2.16918413E+00,  3.43904632E-02, -1.61564236E-06,
                      -1.30726562E-08,  5.17350451E-12, -1.72505136E+04,
                       1.46546701E+01]),
                NASA([1147.60, 5000.00],
                     [ 6.78903089E+00,  3.03598162E-02, -1.21262050E-05,
                       2.19945025E-09, -1.50289312E-13, -1.91057969E+04,
                      -1.17329103E+01])))

species(name=u'CH4(118)',
        atoms='H:4 C:1',
        thermo=(NASA([100.00, 1084.12],
                     [ 4.20541524E+00, -5.35557362E-03,  2.51123265E-05,
                      -2.13762843E-08,  5.97523937E-12, -1.01619433E+04,
                      -9.21279283E-01]),
                NASA([1084.12, 5000.00],
                     [ 9.08265721E-01,  1.14540858E-02, -4.57173828E-06,
                       8.29191671E-10, -5.66314895E-14, -9.71997444E+03,
                       1.39930944E+01])))

species(name=u'C3H8(138)',
        atoms='H:8 C:3',
        thermo=(NASA([100.00, 989.99],
                     [ 3.06336167E+00,  1.29214561E-02,  3.47032808E-05,
                      -4.70946154E-08,  1.71384141E-11, -1.43905789E+04,
                       1.07835592E+01]),
                NASA([989.99, 5000.00],
                     [ 5.60440043E+00,  2.19528785E-02, -8.22080610E-06,
                       1.50103993E-09, -1.05635358E-13, -1.58394038E+04,
                      -6.22623300E+00])))

species(name=u'C5H12(214)',
        atoms='H:12 C:5',
        thermo=(NASA([100.00, 1083.72],
                     [ 1.61174582E+00,  4.32467983E-02,  5.74950528E-06,
                      -2.75134571E-08,  1.08080045E-11, -2.00565292E+04,
                       1.98944429E+01]),
                NASA([1083.72, 5000.00],
                     [ 8.53683820E+00,  3.80814435E-02, -1.53303035E-05,
                       2.81977580E-09, -1.95507768E-13, -2.27551513E+04,
                      -1.95975419E+01])))

species(name=u'C6H14(220)',
        atoms='H:14 C:6',
        thermo=(NASA([100.00, 1048.16],
                     [ 8.83603407E-01,  5.70449582E-02, -2.15511769E-06,
                      -2.85512365E-08,  1.26618641E-11, -2.27982664E+04,
                       2.50352381E+01]),
                NASA([1048.16, 5000.00],
                     [ 1.11354266E+01,  4.25244017E-02, -1.65829595E-05,
                       3.01864905E-09, -2.09013581E-13, -2.62988561E+04,
                      -3.13529752E+01])))

species(name=u'C5H12(230)',
        atoms='H:12 C:5',
        thermo=(NASA([100.00, 1035.89],
                     [ 1.72369892E+00,  4.01626686E-02,  1.63603121E-05,
                      -3.88326196E-08,  1.49780300E-11, -2.08560016E+04,
                       1.91510657E+01]),
                NASA([1035.89, 5000.00],
                     [ 7.87936773E+00,  3.91979316E-02, -1.52647178E-05,
                       2.77213157E-09, -1.91665486E-13, -2.33548825E+04,
                      -1.66693711E+01])))

species(name=u'C4H10(233)',
        atoms='H:10 C:4',
        thermo=(NASA([100.00, 987.08],
                     [ 2.18594095E+00,  3.04312883E-02,  1.83387931E-05,
                      -4.04090927E-08,  1.64481872E-11, -1.82080408E+04,
                       1.37947641E+01]),
                NASA([987.08, 5000.00],
                     [ 8.84811268E+00,  2.61183046E-02, -9.57929598E-06,
                       1.72895160E-09, -1.21006821E-13, -2.06283634E+04,
                      -2.38575760E+01])))

species(name=u'C6H14(240)',
        atoms='H:14 C:6',
        thermo=(NASA([100.00, 1002.79],
                     [ 9.62511884E-01,  5.35099673E-02,  1.32037900E-05,
                      -4.70268617E-08,  1.98557427E-11, -2.36936864E+04,
                       2.41377511E+01]),
                NASA([1002.79, 5000.00],
                     [ 1.14867705E+01,  4.22488291E-02, -1.59010927E-05,
                       2.87000033E-09, -1.99356317E-13, -2.73489440E+04,
                      -3.43661848E+01])))

species(name=u'C6H14(241)',
        atoms='H:14 C:6',
        thermo=(NASA([100.00, 979.30],
                     [ 1.15761484E+00,  4.88425073E-02,  2.64137737E-05,
                      -6.01104569E-08,  2.45806956E-11, -2.37935343E+04,
                       2.21623322E+01]),
                NASA([979.30, 5000.00],
                     [ 1.04141051E+01,  4.37548510E-02, -1.59118175E-05,
                       2.82122166E-09, -1.94532762E-13, -2.71755416E+04,
                      -3.03122062E+01])))

species(name=u'C7H16(254)',
        atoms='H:16 C:7',
        thermo=(NASA([100.00, 1120.69],
                     [ 1.06339491E-01,  7.34420479E-02, -2.20939297E-05,
                      -1.28197435E-08,  7.39373087E-12, -2.64706183E+04,
                       2.93479113E+01]),
                NASA([1120.69, 5000.00],
                     [ 1.31589528E+01,  4.92569317E-02, -1.97080319E-05,
                       3.59805544E-09, -2.47725029E-13, -3.08030385E+04,
                      -4.13873017E+01])))

species(name=u'C6H14(264)',
        atoms='H:14 C:6',
        thermo=(NASA([100.00, 1237.11],
                     [ 9.36204265E-01,  5.80630250E-02, -1.05197660E-05,
                      -1.36320323E-08,  5.73438090E-12, -2.34249411E+04,
                       2.40002576E+01]),
                NASA([1237.11, 5000.00],
                     [ 1.03159905E+01,  4.66440696E-02, -1.96015321E-05,
                       3.61730433E-09, -2.48224262E-13, -2.71926741E+04,
                      -2.90957696E+01])))

species(name=u'C7H16(272)',
        atoms='H:16 C:7',
        thermo=(NASA([100.00, 1120.69],
                     [ 1.06339491E-01,  7.34420479E-02, -2.20939297E-05,
                      -1.28197435E-08,  7.39373087E-12, -2.60680432E+04,
                       3.00410584E+01]),
                NASA([1120.69, 5000.00],
                     [ 1.31589528E+01,  4.92569317E-02, -1.97080319E-05,
                       3.59805544E-09, -2.47725029E-13, -3.04004633E+04,
                      -4.06941546E+01])))

species(name=u'C7H16(273)',
        atoms='H:16 C:7',
        thermo=(NASA([100.00, 1058.24],
                     [ 1.91141557E-01,  7.01355402E-02, -9.59838786E-06,
                      -2.78201475E-08,  1.31404368E-11, -2.67544868E+04,
                       2.87592153E+01]),
                NASA([1058.24, 5000.00],
                     [ 1.34327135E+01,  4.84569089E-02, -1.90870718E-05,
                       3.49343735E-09, -2.42554508E-13, -3.11457174E+04,
                      -4.33795342E+01])))

species(name=u'C7H16(290)',
        atoms='H:16 C:7',
        thermo=(NASA([100.00, 1058.24],
                     [ 1.91141557E-01,  7.01355402E-02, -9.59838786E-06,
                      -2.78201475E-08,  1.31404368E-11, -2.71570619E+04,
                       2.73729209E+01]),
                NASA([1058.24, 5000.00],
                     [ 1.34327135E+01,  4.84569089E-02, -1.90870718E-05,
                       3.49343735E-09, -2.42554508E-13, -3.15482926E+04,
                      -4.47658285E+01])))

species(name=u'C6H14(303)',
        atoms='H:14 C:6',
        thermo=(NASA([100.00, 999.60],
                     [ 1.13914864E+00,  5.18713751E-02,  1.51948225E-05,
                      -4.44277431E-08,  1.80491646E-11, -2.48256356E+04,
                       2.08096782E+01]),
                NASA([999.60, 5000.00],
                     [ 8.28885191E+00,  4.86579196E-02, -1.80934696E-05,
                       3.19040633E-09, -2.16940675E-13, -2.75238301E+04,
                      -2.00273110E+01])))

species(name=u'S(1185)',
        atoms='H:14 C:7',
        thermo=(NASA([100.00, 1795.91],
                     [ 4.67394448E-01,  7.39879143E-02, -4.35585088E-05,
                       1.28813527E-08, -1.57471910E-12, -1.55850005E+04,
                       2.60792622E+01]),
                NASA([1795.91, 5000.00],
                     [ 1.48041804E+01,  4.20558172E-02, -1.68878126E-05,
                       2.98081587E-09, -1.96512255E-13, -2.07345134E+04,
                      -5.14817934E+01])))

species(name=u'X(1)',
        atoms='X:1',
        thermo=(NASA([100.00, 1554.80],
                     [ 7.10139498E-03, -4.25619522E-05,  8.98533016E-08,
                      -7.80193649E-11,  2.32465471E-14, -8.76101712E-01,
                      -3.11211229E-02]),
                NASA([1554.80, 5000.00],
                     [ 1.60299900E-01, -2.52235409E-04,  1.14181275E-07,
                      -1.21471653E-11,  3.85790025E-16, -7.08100885E+01,
                      -9.09527530E-01])))

species(name=u'HX(5)',
        atoms='H:1 X:1',
        thermo=(NASA([100.00, 952.91],
                     [-3.80965452E-01,  5.47228709E-03,  2.60912778E-06,
                      -9.64961980E-09,  4.63946753E-12,  7.98421583E+03,
                       1.01725550E+00]),
                NASA([952.91, 5000.00],
                     [ 2.80339655E+00, -5.41047017E-04,  4.99507978E-07,
                      -7.54963647E-11,  3.06772366E-15,  7.04346641E+03,
                      -1.59436787E+01])))

species(name=u'C2H3X(37)',
        atoms='H:3 C:2 X:1',
        thermo=(NASA([100.00, 928.62],
                     [ 3.83091018E+00, -8.76381562E-03,  6.97956896E-05,
                      -8.67969174E-08,  3.33218121E-11, -4.92724095E+03,
                      -1.81151753E+01]),
                NASA([928.62, 5000.00],
                     [ 8.78054562E+00,  1.92497720E-03,  8.25825014E-07,
                      -1.63749818E-10,  5.71728318E-15, -7.22664407E+03,
                      -4.90588618E+01])))

species(name=u'allylX(38)',
        atoms='H:5 C:3 X:1',
        thermo=(NASA([100.00, 937.34],
                     [ 3.44148119E+00, -3.47700003E-03,  8.25933681E-05,
                      -1.05556823E-07,  4.04445066E-11, -8.46907908E+03,
                      -6.88846669E+00]),
                NASA([937.34, 5000.00],
                     [ 9.98148902E+00,  8.92268754E-03, -1.75442587E-06,
                       3.12285771E-10, -2.84156572E-14, -1.14658767E+04,
                      -4.74626902E+01])))

species(name=u'CH3X(39)',
        atoms='H:3 C:1 X:1',
        thermo=(NASA([100.00, 848.30],
                     [-1.21090496E+00,  2.92390681E-02, -4.49011079E-05,
                       3.86009808E-08, -1.30361041E-11, -1.26477576E+04,
                       6.80939750E+00]),
                NASA([848.30, 5000.00],
                     [ 1.62290877E+00,  1.12987268E-02, -5.08316908E-06,
                       9.46833581E-10, -6.42885536E-14, -1.29638225E+04,
                      -5.42501059E+00])))

species(name=u'C2H5X(40)',
        atoms='H:5 C:2 X:1',
        thermo=(NASA([100.00, 803.81],
                     [-1.64625424E+00,  3.89626488E-02, -4.31128887E-05,
                       2.97076939E-08, -8.80222915E-12, -1.66314326E+04,
                       9.27323637E+00]),
                NASA([803.81, 5000.00],
                     [ 1.97598112E+00,  2.09382766E-02, -9.47916922E-06,
                       1.81392948E-09, -1.27206354E-13, -1.72137814E+04,
                      -7.41107956E+00])))

species(name=u'C4H7X(41)',
        atoms='H:7 C:4 X:1',
        thermo=(NASA([100.00, 971.02],
                     [ 2.64365035E+00,  1.79007589E-02,  4.24443189E-05,
                      -6.44028479E-08,  2.49593993E-11, -1.24257885E+04,
                      -6.69991651E+00]),
                NASA([971.02, 5000.00],
                     [ 9.25871667E+00,  2.04064152E-02, -7.39143670E-06,
                       1.37021231E-09, -9.94133357E-14, -1.51132726E+04,
                      -4.56426102E+01])))

species(name=u'C4H7X(42)',
        atoms='H:7 C:4 X:1',
        thermo=(NASA([100.00, 986.67],
                     [ 2.45798205E+00,  2.47217336E-02,  2.01285964E-05,
                      -4.02735564E-08,  1.62485845E-11, -4.02360146E+03,
                      -5.12991781E+00]),
                NASA([986.67, 5000.00],
                     [ 8.87898065E+00,  2.09043993E-02, -7.83851223E-06,
                       1.44076477E-09, -1.02346878E-13, -6.37195757E+03,
                      -4.15007572E+01])))

species(name=u'C4H7X(43)',
        atoms='H:7 C:4 X:1',
        thermo=(NASA([100.00, 965.06],
                     [ 2.56877619E+00,  1.97500674E-02,  3.72961301E-05,
                      -6.04017092E-08,  2.39989018E-11, -1.26972094E+04,
                      -8.56564322E+00]),
                NASA([965.06, 5000.00],
                     [ 9.89778724E+00,  1.86142959E-02, -6.38884453E-06,
                       1.17309353E-09, -8.55406646E-14, -1.54735006E+04,
                      -5.07182348E+01])))

species(name=u'C4H7X(44)',
        atoms='H:7 C:4 X:1',
        thermo=(NASA([100.00, 949.35],
                     [ 2.54254539E+00,  1.77389010E-02,  4.93877612E-05,
                      -7.72878178E-08,  3.10660019E-11, -1.14715761E+04,
                      -8.46783968E+00]),
                NASA([949.35, 5000.00],
                     [ 1.15220223E+01,  1.60005944E-02, -4.89823595E-06,
                       8.83972924E-10, -6.63710570E-14, -1.48031084E+04,
                      -5.98888028E+01])))

species(name=u'C3H5X(45)',
        atoms='H:5 C:3 X:1',
        thermo=(NASA([100.00, 939.06],
                     [ 3.23683359E+00,  3.73132320E-03,  6.01028900E-05,
                      -8.16245569E-08,  3.18536011E-11, -8.74048254E+03,
                      -1.35295467E+01]),
                NASA([939.06, 5000.00],
                     [ 9.70183185E+00,  9.48309646E-03, -2.25953763E-06,
                       3.98431327E-10, -3.27118882E-14, -1.14225115E+04,
                      -5.21282869E+01])))

species(name=u'C4H9X(64)',
        atoms='H:9 C:4 X:1',
        thermo=(NASA([100.00, 1009.34],
                     [ 2.45382734E+00,  2.40994657E-02,  3.11010256E-05,
                      -4.95699577E-08,  1.85293661E-11, -2.07695628E+04,
                      -3.52847415E+00]),
                NASA([1009.34, 5000.00],
                     [ 7.52084135E+00,  2.82413531E-02, -1.10515535E-05,
                       2.04772333E-09, -1.44617914E-13, -2.30262843E+04,
                      -3.41331625E+01])))

species(name=u'C4H9X(65)',
        atoms='H:9 C:4 X:1',
        thermo=(NASA([100.00, 993.09],
                     [ 2.22649262E+00,  2.86530428E-02,  2.37814781E-05,
                      -4.60601877E-08,  1.82913065E-11, -1.94865479E+04,
                      -3.55141667E+00]),
                NASA([993.09, 5000.00],
                     [ 9.09063018E+00,  2.59568873E-02, -9.83403420E-06,
                       1.80637207E-09, -1.27731480E-13, -2.20802693E+04,
                      -4.28140480E+01])))

species(name=u'C2H2X(70)',
        atoms='H:2 C:2 X:1',
        thermo=(NASA([100.00, 1146.89],
                     [-1.35665997E+00,  2.85338019E-02, -3.11240758E-05,
                       1.70134067E-08, -3.63322671E-12, -1.54029891E+04,
                       3.79543665E+00]),
                NASA([1146.89, 5000.00],
                     [ 4.86807469E+00,  6.82428196E-03, -2.73110334E-06,
                       5.09415334E-10, -3.57467832E-14, -1.68308353E+04,
                      -2.70885611E+01])))

species(name=u'C6H11X(72)',
        atoms='H:11 C:6 X:1',
        thermo=(NASA([100.00, 968.49],
                     [ 1.21380653E+00,  4.74385684E-02,  1.70473783E-05,
                      -5.31710482E-08,  2.32909786E-11, -1.10312733E+04,
                       5.18267936E+00]),
                NASA([968.49, 5000.00],
                     [ 1.29066493E+01,  3.25069116E-02, -1.14963418E-05,
                       2.04429996E-09, -1.42970869E-13, -1.48607703E+04,
                      -5.89317378E+01])))

species(name=u'C6H11X(73)',
        atoms='H:11 C:6 X:1',
        thermo=(NASA([100.00, 1026.60],
                     [ 1.36763236E+00,  4.47159424E-02,  1.77339332E-05,
                      -4.72504607E-08,  1.90469768E-11, -1.23054878E+04,
                       5.40777780E+00]),
                NASA([1026.60, 5000.00],
                     [ 1.14239279E+01,  3.61439866E-02, -1.44679608E-05,
                       2.70636835E-09, -1.91760853E-13, -1.59833040E+04,
                      -5.12283432E+01])))

species(name=u'CH2X(74)',
        atoms='H:2 C:1 X:1',
        thermo=(NASA([100.00, 1199.82],
                     [-1.02006594E+00,  2.03778552E-02, -2.17291076E-05,
                       1.15868543E-08, -2.38469979E-12, -1.34072078E+04,
                       2.99160459E+00]),
                NASA([1199.82, 5000.00],
                     [ 3.89285483E+00,  3.99892281E-03, -1.25227942E-06,
                       2.09081361E-10, -1.39642489E-14, -1.45861267E+04,
                      -2.16053707E+01])))

species(name=u'C2H4X(84)',
        atoms='H:4 C:2 X:1',
        thermo=(NASA([100.00, 922.92],
                     [-1.51744559E+00,  3.54364794E-02, -3.81057246E-05,
                       2.35708696E-08, -6.09814448E-12, -1.85156739E+04,
                       5.77183816E+00]),
                NASA([922.92, 5000.00],
                     [ 2.83446173E+00,  1.65755797E-02, -7.45248059E-06,
                       1.42932264E-09, -1.00637720E-13, -1.93189907E+04,
                      -1.48746526E+01])))

species(name=u'C6H11X(86)',
        atoms='H:11 C:6 X:1',
        thermo=(NASA([100.00, 996.76],
                     [ 1.22387093E+00,  4.65813911E-02,  1.88286839E-05,
                      -5.31476442E-08,  2.23784278E-11, -1.10115426E+04,
                       5.15231381E+00]),
                NASA([996.76, 5000.00],
                     [ 1.30217585E+01,  3.34007173E-02, -1.27486852E-05,
                       2.35864380E-09, -1.67706149E-13, -1.50606488E+04,
                      -6.02408109E+01])))

species(name=u'C8H15X(88)',
        atoms='H:15 C:8 X:1',
        thermo=(NASA([100.00, 994.85],
                     [-2.09636588E-01,  7.61893040E-02, -6.62762061E-06,
                      -4.13993950E-08,  2.03753360E-11, -1.69804726E+04,
                       1.45011449E+01]),
                NASA([994.85, 5000.00],
                     [ 1.65050247E+01,  4.60590351E-02, -1.70974140E-05,
                       3.07531984E-09, -2.13982995E-13, -2.21408832E+04,
                      -7.52720544E+01])))

species(name=u'C8H15X(89)',
        atoms='H:15 C:8 X:1',