units(length='cm', time='s', quantity='mol', act_energy='kcal/mol')

ideal_gas(name='gas',
          elements="H D T C Ci O Oi N Ne Ar He Si S Cl X",
          species="""n-heptane   Ar          He          Ne
                     N2          C2H4(2)     C4H8-1(3)   C4H8-2(4)
                     C6H12q(96)  C6H12(111)  C4H8(117)   C6H12(126)
                     C6H12(176)  C6H12(187)  C6H12(261)  C6H12(263)
                     C6H12(386)  C8H16(490)  C8H16(543)  C6H12(722)
                     C6H12(723)  C6H12(893)  S(1452)     S(1454)
                     S(1455)     S(1708)     S(1912)     S(2413)
                     S(2722)     S(2724)     S(2969)     S(3730)
                     S(3731)     S(4404)     S(4405)     S(4960)
                     S(5134)     S(5135)     S(5488)     S(6403)
                     S(6902)     S(6903)     S(9674)     S(9675)
                     S(10153)    S(10154)    S(11108)    S(12545)""",
          reactions='gas-*',
          initial_state=state(temperature=300.0, pressure=OneAtm))

ideal_interface(name='surface1',
                elements="H D T C Ci O Oi N Ne Ar He Si S Cl X",
                species="""X(1)        HX(5)       C2H3X(37)   C2H5X(40)
                          C4H9X(64)   C4H9X(65)   C2H2X(70)   C2H4X(76)
                          C6H13X(77)  C6H13X(78)  C6H13X(79)  C2H3X(84)
                          C6H13X(92)  C8H17X(94)  C8H17X(95)  SX(101)
                          C4H9X(105)  SX(107)     SX(108)     SX(109)
                          SX(110)     C4H9X(118)  SX(121)     SX(131)
                          SX(159)     SX(160)     SX(164)     SX(172)
                          SX(174)     SX(175)     SX(179)     SX(188)
                          SX(201)     SX(238)     SX(239)     SX(264)
                          SX(273)     SX(304)     SX(353)     SX(387)
                          SX(443)     SX(444)     SX(486)     SX(488)
                          SX(489)     SX(539)     SX(548)     SX(581)
                          SX(786)     SX(787)     SX(854)     SX(863)
                          SX(894)     SX(903)     SX(963)     SX(964)
                          SX(1236)    SX(1525)    SX(1709)    SX(1798)
                          SX(1977)    SX(2414)    SX(2818)    SX(2970)
                          SX(4313)    SX(5052)    SX(5136)    SX(6404)""",
                site_density=2.72e-09,
                phases="gas",
          reactions='surface1-*',
                initial_state=state(temperature=300.0, pressure=OneAtm))

#-------------------------------------------------------------------------------
# Element data
#-------------------------------------------------------------------------------

element(symbol=u'X', atomic_mass=195.083)
element(symbol=u'Ci', atomic_mass=13.003)
element(symbol=u'D', atomic_mass=2.014)
element(symbol=u'Oi', atomic_mass=18.0)
element(symbol=u'T', atomic_mass=3.016)
#-------------------------------------------------------------------------------
# Species data
#-------------------------------------------------------------------------------

species(name=u'n-heptane',
        atoms='H:16 C:7',
        thermo=(NASA([100.00, 1262.73],
                     [-2.91681405E-03,  7.69373649E-02, -3.48025563E-05,
                       1.86095180E-09,  2.01573617E-12, -2.57829342E+04,
                       3.00312148E+01]),
                NASA([1262.73, 5000.00],
                     [ 1.38377915E+01,  4.85945016E-02, -1.95474548E-05,
                       3.52837178E-09, -2.39064676E-13, -3.05141556E+04,
                      -4.48642836E+01])))

species(name=u'Ar',
        atoms='Ar:1',
        thermo=(NASA([200.00, 1000.00],
                     [ 2.50000000E+00,  0.00000000E+00,  0.00000000E+00,
                       0.00000000E+00,  0.00000000E+00, -7.45375000E+02,
                       4.37967000E+00]),
                NASA([1000.00, 6000.00],
                     [ 2.50000000E+00,  0.00000000E+00,  0.00000000E+00,
                       0.00000000E+00,  0.00000000E+00, -7.45375000E+02,
                       4.37967000E+00])))

species(name=u'He',
        atoms='He:1',
        thermo=(NASA([200.00, 1000.00],
                     [ 2.50000000E+00,  0.00000000E+00,  0.00000000E+00,
                       0.00000000E+00,  0.00000000E+00, -7.45375000E+02,
                       9.28724000E-01]),
                NASA([1000.00, 6000.00],
                     [ 2.50000000E+00,  0.00000000E+00,  0.00000000E+00,
                       0.00000000E+00,  0.00000000E+00, -7.45375000E+02,
                       9.28724000E-01])))

species(name=u'Ne',
        atoms='Ne:1',
        thermo=(NASA([200.00, 1000.00],
                     [ 2.50000000E+00,  0.00000000E+00,  0.00000000E+00,
                       0.00000000E+00,  0.00000000E+00, -7.45375000E+02,
                       3.35532000E+00]),
                NASA([1000.00, 6000.00],
                     [ 2.50000000E+00,  0.00000000E+00,  0.00000000E+00,
                       0.00000000E+00,  0.00000000E+00, -7.45375000E+02,
                       3.35532000E+00])))

species(name=u'N2',
        atoms='N:2',
        thermo=(NASA([200.00, 1000.00],
                     [ 3.53101000E+00, -1.23661000E-04, -5.02999000E-07,
                       2.43531000E-09, -1.40881000E-12, -1.04698000E+03,
                       2.96747000E+00]),
                NASA([1000.00, 6000.00],
                     [ 2.95258000E+00,  1.39690000E-03, -4.92632000E-07,
                       7.86010000E-11, -4.60755000E-15, -9.23949000E+02,
                       5.87189000E+00])))

species(name=u'C2H4(2)',
        atoms='H:4 C:2',
        thermo=(NASA([100.00, 979.36],
                     [ 3.97471606E+00, -4.75844285E-03,  4.16783770E-05,
                      -4.51392516E-08,  1.54224761E-11,  4.91540746E+03,
                       3.62430844E+00]),
                NASA([979.36, 5000.00],
                     [ 3.55660610E+00,  1.10627464E-02, -4.17019079E-06,
                       7.85586770E-10, -5.70060829E-14,  4.32046489E+03,
                       2.17719479E+00])))

species(name=u'C4H8-1(3)',
        atoms='H:8 C:4',
        thermo=(NASA([100.00, 1007.28],
                     [ 2.58772906E+00,  2.32777969E-02,  1.93412349E-05,
                      -3.55496333E-08,  1.36906009E-11, -1.91872926E+03,
                       1.45750618E+01]),
                NASA([1007.28, 5000.00],
                     [ 7.20517168E+00,  2.36361568E-02, -9.03150028E-06,
                       1.65392666E-09, -1.16019260E-13, -3.79733937E+03,
                      -1.24426257E+01])))

species(name=u'C4H8-2(4)',
        atoms='H:8 C:4',
        thermo=(NASA([100.00, 1157.79],
                     [ 2.51998327E+00,  2.76812799E-02,  9.43783469E-07,
                      -1.25009101E-08,  4.67144666E-12, -3.34374767E+03,
                       1.30195623E+01]),
                NASA([1157.79, 5000.00],
                     [ 6.04225708E+00,  2.60072350E-02, -1.04843374E-05,
                       1.90880922E-09, -1.30600505E-13, -4.86276511E+03,
                      -7.52715109E+00])))

species(name=u'C6H12q(96)',
        atoms='H:12 C:6',
        thermo=(NASA([100.00, 2065.44],
                     [ 1.68598658E+00,  5.58664307E-02, -2.53057821E-05,
                       3.98016615E-09, -6.94904807E-14, -7.81739466E+03,
                       2.09919882E+01]),
                NASA([2065.44, 5000.00],
                     [ 2.13486140E+01,  2.79136045E-02, -1.23596487E-05,
                       2.17527434E-09, -1.38347372E-13, -1.80997789E+04,
                      -9.33598720E+01])))

species(name=u'C6H12(111)',
        atoms='H:12 C:6',
        thermo=(NASA([100.00, 1018.92],
                     [ 1.21827324E+00,  4.88303598E-02,  8.49335826E-06,
                      -3.91899735E-08,  1.67107196E-11, -8.55522126E+03,
                       2.43074946E+01]),
                NASA([1018.92, 5000.00],
                     [ 1.16698119E+01,  3.59250755E-02, -1.39120664E-05,
                       2.55991991E-09, -1.79822160E-13, -1.21450086E+04,
                      -3.34751762E+01])))

species(name=u'C4H8(117)',
        atoms='H:8 C:4',
        thermo=(NASA([100.00, 1061.33],
                     [ 2.52504770E+00,  2.64752782E-02,  7.08359238E-06,
                      -2.07731462E-08,  8.00430055E-12, -4.02607130E+03,
                       1.28857274E+01]),
                NASA([1061.33, 5000.00],
                     [ 6.48672669E+00,  2.49943921E-02, -9.83283171E-06,
                       1.79343299E-09, -1.24008235E-13, -5.62452310E+03,
                      -1.00316397E+01])))

species(name=u'C6H12(126)',
        atoms='H:12 C:6',
        thermo=(NASA([100.00, 727.96],
                     [ 9.39440133E-01,  7.36827282E-02, -7.88408848E-05,
                       6.61457863E-08, -2.57040766E-11, -8.86666114E+03,
                       2.10074400E+01]),
                NASA([727.96, 5000.00],
                     [ 3.15400112E+00,  5.47777314E-02, -2.60055290E-05,
                       5.04732853E-09, -3.55800709E-13, -9.01059211E+03,
                       1.22525714E+01])))

species(name=u'C6H12(176)',
        atoms='H:12 C:6',
        thermo=(NASA([100.00, 1083.88],
                     [ 1.36789859E+00,  4.60332170E-02,  1.03872042E-05,
                      -3.61548644E-08,  1.41144370E-11, -9.74154091E+03,
                       1.94334438E+01]),
                NASA([1083.88, 5000.00],
                     [ 1.07762218E+01,  3.82405519E-02, -1.60946813E-05,
                       3.05489613E-09, -2.16276948E-13, -1.33628055E+04,
                      -3.40108516E+01])))

species(name=u'C6H12(187)',
        atoms='H:12 C:6',
        thermo=(NASA([100.00, 1083.88],
                     [ 1.36789859E+00,  4.60332170E-02,  1.03872042E-05,
                      -3.61548644E-08,  1.41144370E-11, -9.21215455E+03,
                       2.36685346E+01]),
                NASA([1083.88, 5000.00],
                     [ 1.07762218E+01,  3.82405519E-02, -1.60946813E-05,
                       3.05489613E-09, -2.16276948E-13, -1.28334192E+04,
                      -2.97757608E+01])))

species(name=u'C6H12(261)',
        atoms='H:12 C:6',
        thermo=(NASA([100.00, 1839.14],
                     [ 7.39766525E-01,  6.35836379E-02, -3.85035731E-05,
                       1.16726754E-08, -1.43915861E-12, -9.53996498E+03,
                       2.35193792E+01]),
                NASA([1839.14, 5000.00],
                     [ 1.56639911E+01,  3.11245214E-02, -1.20299805E-05,
                       2.07631491E-09, -1.34696441E-13, -1.50295162E+04,
                      -5.75746881E+01])))

species(name=u'C6H12(263)',
        atoms='H:12 C:6',
        thermo=(NASA([100.00, 1829.14],
                     [ 7.23497206E-01,  6.40962986E-02, -3.88937857E-05,
                       1.18285810E-08, -1.46479639E-12, -9.55473307E+03,
                       2.34752956E+01]),
                NASA([1829.14, 5000.00],
                     [ 1.55815550E+01,  3.16049972E-02, -1.22495396E-05,
                       2.11773097E-09, -1.37578189E-13, -1.49903266E+04,
                      -5.71784952E+01])))

species(name=u'C6H12(386)',
        atoms='H:12 C:6',
        thermo=(NASA([100.00, 1917.57],
                     [ 2.29989638E+00,  4.93347109E-02, -1.39908418E-05,
                      -2.79410381E-09,  1.20747058E-12, -1.03230301E+04,
                       1.84311611E+01]),
                NASA([1917.57, 5000.00],
                     [ 1.85703860E+01,  3.37500613E-02, -1.61580314E-05,
                       2.95111967E-09, -1.92346931E-13, -1.99376584E+04,
                      -7.94569206E+01])))

species(name=u'C8H16(490)',
        atoms='H:16 C:8',
        thermo=(NASA([100.00, 1068.28],
                     [-3.86402556E-01,  8.02896533E-02, -1.79134597E-05,
                      -2.64431307E-08,  1.35796345E-11, -1.44829836E+04,
                       3.18031785E+01]),
                NASA([1068.28, 5000.00],
                     [ 1.69555952E+01,  4.84600586E-02, -1.97042087E-05,
                       3.68294781E-09, -2.59166103E-13, -2.00771806E+04,
                      -6.18486063E+01])))

species(name=u'C8H16(543)',
        atoms='H:16 C:8',
        thermo=(NASA([100.00, 1061.04],
                     [-3.82929656E-01,  8.00423859E-02, -1.67602980E-05,
                      -2.81000571E-08,  1.42971954E-11, -1.49885333E+04,
                       3.18190775E+01]),
                NASA([1061.04, 5000.00],
                     [ 1.70424083E+01,  4.81578381E-02, -1.94781854E-05,
                       3.63692199E-09, -2.56059379E-13, -2.05893304E+04,
                      -6.22481809E+01])))

species(name=u'C6H12(722)',
        atoms='H:12 C:6',
        thermo=(NASA([100.00, 1698.33],
                     [ 1.59095742E+00,  5.26758494E-02, -1.83561979E-05,
                      -1.06676417E-09,  1.11255271E-12, -1.06220126E+04,
                       2.16531738E+01]),
                NASA([1698.33, 5000.00],
                     [ 1.44977568E+01,  3.62929517E-02, -1.62656052E-05,
                       2.97191363E-09, -1.97262818E-13, -1.70273370E+04,
                      -5.34016107E+01])))

species(name=u'C6H12(723)',
        atoms='H:12 C:6',
        thermo=(NASA([100.00, 3144.72],
                     [ 1.62486600E+00,  5.81706891E-02, -2.94074668E-05,
                       6.41453677E-09, -5.27511383E-13, -9.95070725E+03,
                       2.05730324E+01]),
                NASA([3144.72, 5000.00],
                     [ 2.63049846E+01,  2.09689465E-02, -8.89163385E-06,
                       1.47783715E-09, -8.83519412E-14, -2.26006402E+04,
                      -1.22203751E+02])))

species(name=u'C6H12(893)',
        atoms='H:12 C:6',
        thermo=(NASA([100.00, 1669.48],
                     [ 1.53174148E+00,  5.28581860E-02, -1.89682696E-05,
                      -7.62455342E-10,  1.08593390E-12, -9.44873727E+03,
                       2.14414196E+01]),
                NASA([1669.48, 5000.00],
                     [ 1.41707554E+01,  3.61096226E-02, -1.60799521E-05,
                       2.93994576E-09, -1.95627554E-13, -1.55549272E+04,
                      -5.16608415E+01])))

species(name=u'S(1452)',
        atoms='H:16 C:8',
        thermo=(NASA([100.00, 1769.28],
                     [-4.28289666E-01,  8.85244780E-02, -5.42904965E-05,
                       1.68301645E-08, -2.14054042E-12, -1.82717117E+04,
                       3.15313650E+01]),
                NASA([1769.28, 5000.00],
                     [ 1.85304588E+01,  4.56620251E-02, -1.79512728E-05,
                       3.13738059E-09, -2.05726834E-13, -2.49803178E+04,
                      -7.07508092E+01])))

species(name=u'S(1454)',
        atoms='H:16 C:8',
        thermo=(NASA([100.00, 1867.12],
                     [-6.70204015E-01,  8.83974181E-02, -5.34449807E-05,
                       1.61777191E-08, -1.98265266E-12, -1.70126291E+04,
                       3.36977707E+01]),
                NASA([1867.12, 5000.00],
                     [ 2.13798953E+01,  4.11577141E-02, -1.54929470E-05,
                       2.62643602E-09, -1.68152333E-13, -2.52464975E+04,
                      -8.64487818E+01])))

species(name=u'S(1455)',
        atoms='H:16 C:8',
        thermo=(NASA([100.00, 1074.80],
                     [-3.42825371E-01,  8.14529277E-02, -2.67801190E-05,
                      -1.52658314E-08,  9.56904008E-12, -1.54154811E+04,
                       3.35832339E+01]),
                NASA([1074.80, 5000.00],
                     [ 1.55849059E+01,  4.91816615E-02, -1.94317842E-05,
                       3.55420548E-09, -2.46321453E-13, -2.03991393E+04,
                      -5.16642177E+01])))

species(name=u'S(1708)',
        atoms='H:12 C:6',
        thermo=(NASA([100.00, 1083.88],
                     [ 1.36789859E+00,  4.60332170E-02,  1.03872042E-05,
                      -3.61548644E-08,  1.41144370E-11, -9.87388749E+03,
                       2.31436772E+01]),
                NASA([1083.88, 5000.00],
                     [ 1.07762218E+01,  3.82405519E-02, -1.60946813E-05,
                       3.05489613E-09, -2.16276948E-13, -1.34951521E+04,
                      -3.03006182E+01])))

species(name=u'S(1912)',
        atoms='H:12 C:6',
        thermo=(NASA([100.00, 1083.88],
                     [ 1.36789859E+00,  4.60332170E-02,  1.03872042E-05,
                      -3.61548644E-08,  1.41144370E-11, -1.08959252E+04,
                       2.21769936E+01]),
                NASA([1083.88, 5000.00],
                     [ 1.07762218E+01,  3.82405519E-02, -1.60946813E-05,
                       3.05489613E-09, -2.16276948E-13, -1.45171898E+04,
                      -3.12673018E+01])))

species(name=u'S(2413)',
        atoms='H:16 C:8',
        thermo=(NASA([100.00, 1097.92],
                     [-3.48790375E-01,  8.05834069E-02, -2.26065709E-05,
                      -1.91528891E-08,  1.04961558E-11, -1.63607990E+04,
                       3.12322472E+01]),
                NASA([1097.92, 5000.00],
                     [ 1.61916595E+01,  4.96304235E-02, -2.03592318E-05,
                       3.79589513E-09, -2.65595689E-13, -2.17592554E+04,
                      -5.81555050E+01])))

species(name=u'S(2722)',
        atoms='H:16 C:8',
        thermo=(NASA([100.00, 1769.28],
                     [-4.28289666E-01,  8.85244780E-02, -5.42904965E-05,
                       1.68301645E-08, -2.14054042E-12, -1.82717117E+04,
                       3.15313650E+01]),
                NASA([1769.28, 5000.00],
                     [ 1.85304588E+01,  4.56620251E-02, -1.79512728E-05,
                       3.13738059E-09, -2.05726834E-13, -2.49803178E+04,
                      -7.07508092E+01])))

species(name=u'S(2724)',
        atoms='H:16 C:8',
        thermo=(NASA([100.00, 1118.41],
                     [-3.16831763E-01,  8.18736711E-02, -3.18681233E-05,
                      -7.53730505E-09,  6.33118023E-12, -1.68902057E+04,
                       3.23614768E+01]),
                NASA([1118.41, 5000.00],
                     [ 1.49367023E+01,  5.01661518E-02, -1.99839927E-05,
                       3.64360666E-09, -2.50843527E-13, -2.17310473E+04,
                      -4.93230614E+01])))

species(name=u'S(2969)',
        atoms='H:16 C:8',
        thermo=(NASA([100.00, 1183.23],
                     [-4.76602704E-01,  8.58608212E-02, -4.29084334E-05,
                       3.71299930E-09,  2.45711793E-12, -1.55486856E+04,
                       3.27101881E+01]),
                NASA([1183.23, 5000.00],
                     [ 1.56440324E+01,  4.94616644E-02, -1.97076940E-05,
                       3.56786142E-09, -2.43487100E-13, -2.06304476E+04,
                      -5.31283046E+01])))

species(name=u'S(3730)',
        atoms='H:20 C:10',
        thermo=(NASA([100.00, 1778.57],
                     [-2.19207735E+00,  1.18903293E-01, -7.65353771E-05,
                       2.45333441E-08, -3.17607513E-12, -2.29442410E+04,
                       4.08934998E+01]),
                NASA([1778.57, 5000.00],
                     [ 2.72091974E+01,  5.27785846E-02, -2.07664042E-05,
                       3.62888166E-09, -2.37636468E-13, -3.34024794E+04,
                      -1.17879613E+02])))

species(name=u'S(3731)',
        atoms='H:20 C:10',
        thermo=(NASA([100.00, 1129.73],
                     [-1.97385705E+00,  1.13169860E-01, -5.38290491E-05,
                      -2.07153465E-09,  6.41643945E-12, -2.13420368E+04,
                       4.11768998E+01]),
                NASA([1129.73, 5000.00],
                     [ 2.13396826E+01,  6.09707945E-02, -2.48144758E-05,
                       4.58400726E-09, -3.18147301E-13, -2.85461705E+04,
                      -8.27120088E+01])))

species(name=u'S(4404)',
        atoms='H:16 C:8',
        thermo=(NASA([100.00, 1121.49],
                     [-3.00988522E-01,  8.13804841E-02, -3.05783477E-05,
                      -8.65615983E-09,  6.63127533E-12, -1.62986070E+04,
                       3.39116404E+01]),
                NASA([1121.49, 5000.00],
                     [ 1.49703648E+01,  5.02415049E-02, -2.01324600E-05,
                       3.68258853E-09, -2.53972679E-13, -2.11910446E+04,
                      -4.80556505E+01])))

species(name=u'S(4405)',
        atoms='H:16 C:8',
        thermo=(NASA([100.00, 1341.47],
                     [-4.73418499E-01,  8.61093098E-02, -4.72443285E-05,
                       1.02780445E-08, -1.87630621E-13, -1.64298501E+04,
                       3.38800011E+01]),
                NASA([1341.47, 5000.00],
                     [ 1.64444282E+01,  4.83806377E-02, -1.92769805E-05,
                       3.44608549E-09, -2.31422298E-13, -2.21130406E+04,
                      -5.69735818E+01])))

species(name=u'S(4960)',
        atoms='H:16 C:8',
        thermo=(NASA([100.00, 1157.89],
                     [-2.79862254E-01,  8.14575957E-02, -3.30944562E-05,
                      -4.56557419E-09,  4.89987056E-12, -1.56945519E+04,
                       3.30522668E+01]),
                NASA([1157.89, 5000.00],
                     [ 1.46537352E+01,  5.07690137E-02, -2.04142717E-05,
                       3.72274477E-09, -2.55492193E-13, -2.05539146E+04,
                      -4.72330633E+01])))

species(name=u'S(5134)',
        atoms='H:16 C:8',
        thermo=(NASA([100.00, 1341.47],
                     [-4.73418499E-01,  8.61093098E-02, -4.72443285E-05,
                       1.02780445E-08, -1.87630621E-13, -1.64298501E+04,
                       3.38800011E+01]),
                NASA([1341.47, 5000.00],
                     [ 1.64444282E+01,  4.83806377E-02, -1.92769805E-05,
                       3.44608549E-09, -2.31422298E-13, -2.21130406E+04,
                      -5.69735818E+01])))

species(name=u'S(5135)',
        atoms='H:16 C:8',
        thermo=(NASA([100.00, 1183.71],
                     [-4.57484247E-01,  8.53298559E-02, -4.14911564E-05,
                       2.43658544E-09,  2.82059943E-12, -1.49572294E+04,
                       3.35554068E+01]),
                NASA([1183.71, 5000.00],
                     [ 1.56630838E+01,  4.95614656E-02, -1.98700854E-05,
                       3.61010089E-09, -2.46884424E-13, -2.00841813E+04,
                      -5.24715235E+01])))

species(name=u'S(5488)',
        atoms='H:16 C:8',
        thermo=(NASA([100.00, 1157.89],
                     [-2.79862254E-01,  8.14575957E-02, -3.30944562E-05,
                      -4.56557419E-09,  4.89987056E-12, -1.56945519E+04,
                       3.37454140E+01]),
                NASA([1157.89, 5000.00],
                     [ 1.46537352E+01,  5.07690137E-02, -2.04142717E-05,
                       3.72274477E-09, -2.55492193E-13, -2.05539146E+04,
                      -4.65399161E+01])))

species(name=u'S(6403)',
        atoms='H:16 C:8',
        thermo=(NASA([100.00, 1103.69],
                     [-5.29187719E-01,  8.48122829E-02, -3.18966801E-05,
                      -1.14327901E-08,  8.24148977E-12, -1.62156700E+04,
                       3.08303113E+01]),
                NASA([1103.69, 5000.00],
                     [ 1.69830783E+01,  4.86367623E-02, -1.98238341E-05,
                       3.67981496E-09, -2.56709335E-13, -2.17435964E+04,
                      -6.29146388E+01])))

species(name=u'S(6902)',
        atoms='H:16 C:8',
        thermo=(NASA([100.00, 1153.21],
                     [-5.02154005E-01,  8.52038086E-02, -3.68052552E-05,
                      -4.04183572E-09,  5.18931136E-12, -1.80929870E+04,
                       2.92005150E+01]),
                NASA([1153.21, 5000.00],
                     [ 1.64644028E+01,  4.94227193E-02, -2.02701432E-05,
                       3.74564036E-09, -2.59363707E-13, -2.35401345E+04,
                      -6.17226604E+01])))

species(name=u'S(6903)',
        atoms='H:16 C:8',
        thermo=(NASA([100.00, 1051.27],
                     [-4.32926702E-01,  8.07878710E-02, -1.68309628E-05,
                      -2.94316984E-08,  1.51030426E-11, -1.64833290E+04,
                       3.00500851E+01]),
                NASA([1051.27, 5000.00],
                     [ 1.75024780E+01,  4.74440369E-02, -1.90498213E-05,
                       3.55325145E-09, -2.50469465E-13, -2.21827857E+04,
                      -6.65466962E+01])))

species(name=u'S(9674)',
        atoms='H:16 C:8',
        thermo=(NASA([100.00, 1341.47],
                     [-4.73418499E-01,  8.61093098E-02, -4.72443285E-05,
                       1.02780445E-08, -1.87630621E-13, -1.64298501E+04,
                       3.38800011E+01]),
                NASA([1341.47, 5000.00],
                     [ 1.64444282E+01,  4.83806377E-02, -1.92769805E-05,
                       3.44608549E-09, -2.31422298E-13, -2.21130406E+04,
                      -5.69735818E+01])))

species(name=u'S(9675)',
        atoms='H:16 C:8',
        thermo=(NASA([100.00, 1071.90],
                     [-1.65695882E-01,  7.72599603E-02, -1.76025924E-05,
                      -2.28595983E-08,  1.17785676E-11, -1.55604654E+04,
                       3.39970599E+01]),
                NASA([1071.90, 5000.00],
                     [ 1.48246326E+01,  5.01251738E-02, -1.99393902E-05,
                       3.66391185E-09, -2.54690889E-13, -2.04288566E+04,
                      -4.70822913E+01])))

species(name=u'S(10153)',
        atoms='H:16 C:8',
        thermo=(NASA([100.00, 1839.19],
                     [-2.81416550E-01,  8.69016269E-02, -5.16753853E-05,
                       1.53124524E-08, -1.85631989E-12, -1.65778483E+04,
                       3.25144425E+01]),
                NASA([1839.19, 5000.00],
                     [ 1.85658715E+01,  4.59113690E-02, -1.82448216E-05,
                       3.19463985E-09, -2.09158971E-13, -2.35106228E+04,
                      -6.98970264E+01])))

species(name=u'S(10154)',
        atoms='H:16 C:8',
        thermo=(NASA([100.00, 1183.71],
                     [-4.57484247E-01,  8.53298559E-02, -4.14911564E-05,
                       2.43658544E-09,  2.82059943E-12, -1.49572294E+04,
                       3.42485540E+01]),
                NASA([1183.71, 5000.00],
                     [ 1.56630838E+01,  4.95614656E-02, -1.98700854E-05,
                       3.61010089E-09, -2.46884424E-13, -2.00841813E+04,
                      -5.17783763E+01])))

species(name=u'S(11108)',
        atoms='H:16 C:8',
        thermo=(NASA([100.00, 1180.36],
                     [-2.87937900E-01,  8.18022418E-02, -3.46677137E-05,
                      -2.48501987E-09,  4.07383978E-12, -1.54205135E+04,
                       3.37418485E+01]),
                NASA([1180.36, 5000.00],
                     [ 1.46970377E+01,  5.08368166E-02, -2.04983949E-05,
                       3.73457329E-09, -2.55755949E-13, -2.03384594E+04,
                      -4.68842028E+01])))

species(name=u'S(12545)',
        atoms='H:20 C:10',
        thermo=(NASA([100.00, 1184.32],
                     [-1.95987423E+00,  1.13691026E-01, -5.90800781E-05,
                       5.61204537E-09,  3.30012994E-12, -2.32187469E+04,
                       4.06941859E+01]),
                NASA([1184.32, 5000.00],
                     [ 2.10633926E+01,  6.13793263E-02, -2.50568565E-05,
                       4.60395981E-09, -3.17136901E-13, -3.04568441E+04,
                      -8.18093768E+01])))

species(name=u'X(1)',
        atoms='X:1',
        thermo=(NASA([100.00, 1554.80],
                     [ 7.10139498E-03, -4.25619522E-05,  8.98533016E-08,
                      -7.80193649E-11,  2.32465471E-14, -8.76101712E-01,
                      -3.11211229E-02]),
                NASA([1554.80, 5000.00],
                     [ 1.60299900E-01, -2.52235409E-04,  1.14181275E-07,
                      -1.21471653E-11,  3.85790025E-16, -7.08100885E+01,
                      -9.09527530E-01])))

species(name=u'HX(5)',
        atoms='H:1 X:1',
        thermo=(NASA([100.00, 952.91],
                     [-3.80965452E-01,  5.47228709E-03,  2.60912778E-06,
                      -9.64961980E-09,  4.63946753E-12, -1.52247967E+04,
                       1.01725550E+00]),
                NASA([952.91, 5000.00],
                     [ 2.80339655E+00, -5.41047017E-04,  4.99507978E-07,
                      -7.54963647E-11,  3.06772366E-15, -1.61655461E+04,
                      -1.59436787E+01])))

species(name=u'C2H3X(37)',
        atoms='H:3 C:2 X:1',
        thermo=(NASA([100.00, 928.62],
                     [ 3.83091018E+00, -8.76381562E-03,  6.97956896E-05,
                      -8.67969174E-08,  3.33218121E-11, -2.02611438E+03,
                      -1.81151753E+01]),
                NASA([928.62, 5000.00],
                     [ 8.78054562E+00,  1.92497720E-03,  8.25825014E-07,
                      -1.63749818E-10,  5.71728318E-15, -4.32551751E+03,
                      -4.90588618E+01])))

species(name=u'C2H5X(40)',
        atoms='H:5 C:2 X:1',
        thermo=(NASA([100.00, 803.81],
                     [-1.64625424E+00,  3.89626488E-02, -4.31128887E-05,
                       2.97076939E-08, -8.80222915E-12, -1.37303060E+04,
                       9.27323637E+00]),
                NASA([803.81, 5000.00],
                     [ 1.97598112E+00,  2.09382766E-02, -9.47916922E-06,
                       1.81392948E-09, -1.27206354E-13, -1.43126548E+04,
                      -7.41107956E+00])))

species(name=u'C4H9X(64)',
        atoms='H:9 C:4 X:1',
        thermo=(NASA([100.00, 1009.34],
                     [ 2.45382734E+00,  2.40994657E-02,  3.11010256E-05,
                      -4.95699577E-08,  1.85293661E-11, -1.78684362E+04,
                      -3.52847415E+00]),
                NASA([1009.34, 5000.00],
                     [ 7.52084135E+00,  2.82413531E-02, -1.10515535E-05,
                       2.04772333E-09, -1.44617914E-13, -2.01251577E+04,