units(length='cm', time='s', quantity='mol', act_energy='kcal/mol')

ideal_gas(name='gas',
          elements="H D T C Ci O Oi N Ne Ar He Si S Cl X",
          species="""n-heptane   Ar          He          Ne
                     N2          C2H4(2)     C4H8-1(3)   C4H8-2(4)
                     C4H6(7)     C3H6(32)    H2(68)      C6H10k(80)
                     C8H14(81)   C6H10(100)  C4H8(121)   C6H10(122)
                     C8H14(123)  CH4(218)    C5H10(219)  C5H10(221)
                     C5H10(222)  C2H6(227)   C8H12(251)  C8H12(255)
                     C5H8c(260)  C5H10(279)  C6H12(445)  C6H12(447)
                     C3H8(451)   C6H12(452)  C6H12(453)  S(896)
                     S(900)      C7H12(905)  S(3651)""",
          reactions='gas-*',
          initial_state=state(temperature=300.0, pressure=OneAtm))

ideal_interface(name='surface1',
                elements="H D T C Ci O Oi N Ne Ar He Si S Cl X",
                species="""X(1)        HX(5)       C2H3X(37)   allylX(38)
                          CH3X(39)    C2H5X(40)   C4H7X(41)   C4H7X(42)
                          C4H7X(43)   C4H7X(44)   C3H5X(45)   C4H7X(46)
                          C4H7X(47)   C6H11X(71)  C6H11X(72)  C6H11X(73)
                          C4H7X(95)   C6H11X(96)  C3H5X(115)  SX(117)
                          C4H7X(132)  SX(150)     C4H5X(172)  C4H5X(173)
                          C6H9X(189)  C6H9X(190)  SX(191)     SX(192)
                          SX(200)     C3H7X(214)  C5H9X(225)  C5H9X(226)
                          SX(241)     SX(242)     C6H9X(246)  SX(258)
                          SX(259)     SX(265)     SX(304)     C5H9X(323)
                          C5H9X(342)  C5H9X(360)  C3H7X(395)  C5H9X(396)
                          SX(420)     SX(421)     SX(422)     SX(423)
                          SX(430)     SX(431)     SX(434)     SX(435)
                          SX(450)     C6H9X(468)  C6H9X(469)  SX(484)
                          C6H9X(567)  C6H9X(595)  C5H7X(597)  C5H7X(660)
                          C6H9X(713)  C6H9X(714)  C6H9X(715)  C6H9X(716)
                          SX(799)     SX(801)     C6H9X(888)  C5H7X(890)
                          SX(903)     SX(904)     C6H9X(929)  C6H9X(974)
                          SX(976)     SX(1053)    SX(1094)    SX(1095)
                          SX(1134)    SX(1309)    SX(1358)    SX(1359)
                          SX(1504)    SX(1559)    SX(1560)    SX(1687)
                          SX(1688)    SX(1746)    SX(1747)    SX(1805)
                          SX(1808)    SX(2035)    SX(2098)    SX(2163)
                          SX(2164)    SX(2165)    SX(2231)    SX(2424)
                          SX(2493)    SX(2570)    SX(2572)    SX(2573)
                          SX(2778)    SX(2779)    SX(2780)    SX(2781)
                          SX(2782)    SX(2783)    SX(2834)    SX(3402)
                          SX(3484)    SX(3485)    SX(3645)    SX(3729)
                          SX(3808)    SX(4028)    SX(4536)    SX(4718)
                          SX(4909)    SX(4910)    SX(5001)    SX(5002)
                          SX(5003)    SX(5325)    SX(5326)    SX(5327)
                          SX(5328)    SX(5329)    SX(5376)    SX(5377)
                          SX(5381)    SX(6182)    SX(6286)    SX(6396)
                          SX(6397)    SX(6398)    SX(7378)    SX(7657)
                          SX(7761)    SX(8732)    SX(8837)    SX(9614)
                          SX(9757)    SX(9758)    SX(9759)    SX(10514)
                          SX(10624)   SX(11145)   SX(11504)   SX(11505)
                          SX(11506)   SX(11508)   SX(11509)   SX(12645)
                          SX(12646)   SX(12806)   SX(12807)   SX(13123)
                          SX(13443)   SX(13606)   SX(14233)   SX(14397)
                          SX(14944)   SX(14945)   SX(16250)   SX(16251)
                          SX(16252)   SX(16253)   SX(17260)   SX(17261)
                          SX(17262)   SX(17264)   SX(17843)   SX(18075)
                          SX(18076)   SX(18445)   SX(18446)   SX(18636)
                          SX(18824)   SX(19016)   SX(19204)   SX(19395)
                          SX(20225)   SX(20892)   SX(20894)   SX(21300)
                          SX(22176)   SX(24176)   SX(24374)   SX(24376)
                          SX(25170)   SX(25791)   SX(25999)   SX(26215)
                          SX(26216)   SX(26217)   SX(26662)   SX(26666)
                          SX(27121)   SX(27122)   SX(27350)   SX(27576)
                          SX(27579)   SX(28021)   SX(28705)   SX(28709)
                          SX(29414)   SX(29886)   SX(29887)   SX(30606)
                          SX(31800)   SX(32297)   SX(32298)   SX(33049)
                          SX(33050)   SX(33052)   SX(33771)   SX(33772)
                          SX(34028)   SX(34029)   SX(35051)   SX(35310)
                          SX(35799)   SX(36061)   SX(36062)   SX(36063)
                          SX(36320)   SX(36321)   SX(36323)   SX(36588)
                          SX(37335)   SX(37581)   SX(37848)   SX(37849)
                          SX(38113)   SX(38383)   SX(39957)   SX(39958)
                          SX(40210)   SX(41059)   SX(41060)   SX(41061)
                          SX(43335)   SX(43607)   SX(43887)   SX(44714)
                          SX(44990)   SX(45274)   SX(45275)   SX(45276)
                          SX(45824)   SX(46689)   SX(47550)   SX(47551)
                          SX(48418)   SX(48727)   SX(49313)   SX(50125)
                          SX(50419)   SX(50721)   SX(50722)   SX(51349)
                          SX(51987)   SX(52286)   SX(52592)   SX(52593)
                          SX(53232)   SX(54195)   SX(54196)   SX(54519)
                          SX(54520)   SX(58320)""",
                site_density=2.72e-09,
                phases="gas",
          reactions='surface1-*',
                initial_state=state(temperature=300.0, pressure=OneAtm))

#-------------------------------------------------------------------------------
# Element data
#-------------------------------------------------------------------------------

element(symbol=u'X', atomic_mass=195.083)
element(symbol=u'Ci', atomic_mass=13.003)
element(symbol=u'D', atomic_mass=2.014)
element(symbol=u'Oi', atomic_mass=18.0)
element(symbol=u'T', atomic_mass=3.016)
#-------------------------------------------------------------------------------
# Species data
#-------------------------------------------------------------------------------

species(name=u'n-heptane',
        atoms='H:16 C:7',
        thermo=(NASA([100.00, 1262.73],
                     [-2.91681405E-03,  7.69373649E-02, -3.48025563E-05,
                       1.86095180E-09,  2.01573617E-12, -2.57829342E+04,
                       3.00312148E+01]),
                NASA([1262.73, 5000.00],
                     [ 1.38377915E+01,  4.85945016E-02, -1.95474548E-05,
                       3.52837178E-09, -2.39064676E-13, -3.05141556E+04,
                      -4.48642836E+01])))

species(name=u'Ar',
        atoms='Ar:1',
        thermo=(NASA([200.00, 1000.00],
                     [ 2.50000000E+00,  0.00000000E+00,  0.00000000E+00,
                       0.00000000E+00,  0.00000000E+00, -7.45375000E+02,
                       4.37967000E+00]),
                NASA([1000.00, 6000.00],
                     [ 2.50000000E+00,  0.00000000E+00,  0.00000000E+00,
                       0.00000000E+00,  0.00000000E+00, -7.45375000E+02,
                       4.37967000E+00])))

species(name=u'He',
        atoms='He:1',
        thermo=(NASA([200.00, 1000.00],
                     [ 2.50000000E+00,  0.00000000E+00,  0.00000000E+00,
                       0.00000000E+00,  0.00000000E+00, -7.45375000E+02,
                       9.28724000E-01]),
                NASA([1000.00, 6000.00],
                     [ 2.50000000E+00,  0.00000000E+00,  0.00000000E+00,
                       0.00000000E+00,  0.00000000E+00, -7.45375000E+02,
                       9.28724000E-01])))

species(name=u'Ne',
        atoms='Ne:1',
        thermo=(NASA([200.00, 1000.00],
                     [ 2.50000000E+00,  0.00000000E+00,  0.00000000E+00,
                       0.00000000E+00,  0.00000000E+00, -7.45375000E+02,
                       3.35532000E+00]),
                NASA([1000.00, 6000.00],
                     [ 2.50000000E+00,  0.00000000E+00,  0.00000000E+00,
                       0.00000000E+00,  0.00000000E+00, -7.45375000E+02,
                       3.35532000E+00])))

species(name=u'N2',
        atoms='N:2',
        thermo=(NASA([200.00, 1000.00],
                     [ 3.53101000E+00, -1.23661000E-04, -5.02999000E-07,
                       2.43531000E-09, -1.40881000E-12, -1.04698000E+03,
                       2.96747000E+00]),
                NASA([1000.00, 6000.00],
                     [ 2.95258000E+00,  1.39690000E-03, -4.92632000E-07,
                       7.86010000E-11, -4.60755000E-15, -9.23949000E+02,
                       5.87189000E+00])))

species(name=u'C2H4(2)',
        atoms='H:4 C:2',
        thermo=(NASA([100.00, 979.36],
                     [ 3.97471606E+00, -4.75844285E-03,  4.16783770E-05,
                      -4.51392516E-08,  1.54224761E-11,  4.91540746E+03,
                       3.62430844E+00]),
                NASA([979.36, 5000.00],
                     [ 3.55660610E+00,  1.10627464E-02, -4.17019079E-06,
                       7.85586770E-10, -5.70060829E-14,  4.32046489E+03,
                       2.17719479E+00])))

species(name=u'C4H8-1(3)',
        atoms='H:8 C:4',
        thermo=(NASA([100.00, 1007.28],
                     [ 2.58772906E+00,  2.32777969E-02,  1.93412349E-05,
                      -3.55496333E-08,  1.36906009E-11, -1.91872926E+03,
                       1.45750618E+01]),
                NASA([1007.28, 5000.00],
                     [ 7.20517168E+00,  2.36361568E-02, -9.03150028E-06,
                       1.65392666E-09, -1.16019260E-13, -3.79733937E+03,
                      -1.24426257E+01])))

species(name=u'C4H8-2(4)',
        atoms='H:8 C:4',
        thermo=(NASA([100.00, 1157.79],
                     [ 2.51998327E+00,  2.76812799E-02,  9.43783469E-07,
                      -1.25009101E-08,  4.67144666E-12, -3.34374767E+03,
                       1.30195623E+01]),
                NASA([1157.79, 5000.00],
                     [ 6.04225708E+00,  2.60072350E-02, -1.04843374E-05,
                       1.90880922E-09, -1.30600505E-13, -4.86276511E+03,
                      -7.52715109E+00])))

species(name=u'C4H6(7)',
        atoms='H:6 C:4',
        thermo=(NASA([100.00, 946.05],
                     [ 2.80599310E+00,  1.02584471E-02,  6.17260255E-05,
                      -9.01642687E-08,  3.59116961E-11,  1.16584972E+04,
                       1.20621434E+01]),
                NASA([946.05, 5000.00],
                     [ 1.24693720E+01,  1.00553901E-02, -2.41206872E-06,
                       4.57077303E-10, -3.93160571E-14,  8.01077795E+03,
                      -4.36374720E+01])))

species(name=u'C3H6(32)',
        atoms='H:6 C:3',
        thermo=(NASA([100.00, 983.75],
                     [ 3.31912102E+00,  8.17958674E-03,  3.34736123E-05,
                      -4.36193684E-08,  1.58213364E-11,  7.49325328E+02,
                       9.54025058E+00]),
                NASA([983.75, 5000.00],
                     [ 5.36755173E+00,  1.70743019E-02, -6.35107626E-06,
                       1.16619529E-09, -8.27620279E-14, -4.87138326E+02,
                      -4.54467529E+00])))

species(name=u'H2(68)',
        atoms='H:2',
        thermo=(NASA([100.00, 1959.08],
                     [ 3.43536412E+00,  2.12710353E-04, -2.78625043E-07,
                       3.40267167E-10, -7.76031998E-14, -1.03135984E+03,
                      -3.90841732E+00]),
                NASA([1959.08, 5000.00],
                     [ 2.78816583E+00,  5.87640942E-04,  1.59010417E-07,
                      -5.52739026E-11,  4.34310984E-15, -5.96144270E+02,
                       1.12732655E-01])))

species(name=u'C6H10k(80)',
        atoms='H:10 C:6',
        thermo=(NASA([100.00, 1036.89],
                     [ 1.50874221E+00,  4.27939676E-02,  1.00407781E-05,
                      -3.76644958E-08,  1.56320088E-11,  7.74480595E+03,
                       2.33493905E+01]),
                NASA([1036.89, 5000.00],
                     [ 1.16601041E+01,  3.10397815E-02, -1.26024374E-05,
                       2.38495409E-09, -1.70150727E-13,  4.16633351E+03,
                      -3.30972272E+01])))

species(name=u'C8H14(81)',
        atoms='H:14 C:8',
        thermo=(NASA([100.00, 1131.55],
                     [-3.85809817E-02,  7.63741971E-02, -3.10952919E-05,
                      -5.90347867E-09,  5.52756901E-12,  2.09688836E+03,
                       3.33418113E+01]),
                NASA([1131.55, 5000.00],
                     [ 1.48574659E+01,  4.52274824E-02, -1.83215003E-05,
                       3.37064281E-09, -2.33159586E-13, -2.65132869E+03,
                      -4.64489898E+01])))

species(name=u'C6H10(100)',
        atoms='H:10 C:6',
        thermo=(NASA([100.00, 1020.63],
                     [ 9.97427413E-01,  5.59777045E-02, -2.05880600E-05,
                      -1.17182304E-08,  8.13452041E-12,  6.30749855E+03,
                       2.38941836E+01]),
                NASA([1020.63, 5000.00],
                     [ 1.33828218E+01,  2.83661253E-02, -1.07663110E-05,
                       1.95749020E-09, -1.36589418E-13,  2.68926840E+03,
                      -4.14511818E+01])))

species(name=u'C4H8(121)',
        atoms='H:8 C:4',
        thermo=(NASA([100.00, 1061.33],
                     [ 2.52504770E+00,  2.64752782E-02,  7.08359238E-06,
                      -2.07731462E-08,  8.00430055E-12, -4.02607130E+03,
                       1.28857274E+01]),
                NASA([1061.33, 5000.00],
                     [ 6.48672669E+00,  2.49943921E-02, -9.83283171E-06,
                       1.79343299E-09, -1.24008235E-13, -5.62452310E+03,
                      -1.00316397E+01])))

species(name=u'C6H10(122)',
        atoms='H:10 C:6',
        thermo=(NASA([100.00, 1020.63],
                     [ 9.97427413E-01,  5.59777045E-02, -2.05880600E-05,
                      -1.17182304E-08,  8.13452041E-12,  6.30749855E+03,
                       2.38941836E+01]),
                NASA([1020.63, 5000.00],
                     [ 1.33828218E+01,  2.83661253E-02, -1.07663110E-05,
                       1.95749020E-09, -1.36589418E-13,  2.68926840E+03,
                      -4.14511818E+01])))

species(name=u'C8H14(123)',
        atoms='H:14 C:8',
        thermo=(NASA([100.00, 1280.64],
                     [-2.40718928E-01,  8.14813327E-02, -4.66009351E-05,
                       1.03785261E-08, -7.50594427E-14,  2.66338744E+02,
                       3.32829492E+01]),
                NASA([1280.64, 5000.00],
                     [ 1.60595843E+01,  4.35867655E-02, -1.74638285E-05,
                       3.14846671E-09, -2.13252517E-13, -4.97615747E+03,
                      -5.35566046E+01])))

species(name=u'CH4(218)',
        atoms='H:4 C:1',
        thermo=(NASA([100.00, 1084.12],
                     [ 4.20541524E+00, -5.35557362E-03,  2.51123265E-05,
                      -2.13762843E-08,  5.97523937E-12, -1.01619433E+04,
                      -9.21279283E-01]),
                NASA([1084.12, 5000.00],
                     [ 9.08265721E-01,  1.14540858E-02, -4.57173828E-06,
                       8.29191671E-10, -5.66314895E-14, -9.71997444E+03,
                       1.39930944E+01])))

species(name=u'C5H10(219)',
        atoms='H:10 C:5',
        thermo=(NASA([100.00, 1883.68],
                     [ 2.29195787E+00,  4.21076449E-02, -1.49304794E-05,
                      -1.22102583E-10,  5.99441346E-13, -4.98138150E+03,
                       1.67887076E+01]),
                NASA([1883.68, 5000.00],
                     [ 1.47438472E+01,  2.72460315E-02, -1.23172689E-05,
                       2.21660273E-09, -1.44084857E-13, -1.17269008E+04,
                      -5.66226025E+01])))

species(name=u'C5H10(221)',
        atoms='H:10 C:5',
        thermo=(NASA([100.00, 1065.88],
                     [ 1.83973645E+00,  3.88165649E-02,  3.95415802E-06,
                      -2.48620336E-08,  1.01608534E-11, -6.45875726E+03,
                       1.88194915E+01]),
                NASA([1065.88, 5000.00],
                     [ 8.87931728E+00,  3.15047857E-02, -1.26438740E-05,
                       2.33666558E-09, -1.63001335E-13, -9.04475166E+03,
                      -2.06827600E+01])))

species(name=u'C5H10(222)',
        atoms='H:10 C:5',
        thermo=(NASA([100.00, 1893.09],
                     [ 2.46381073E+00,  4.04325284E-02, -1.26603968E-05,
                      -1.31821688E-09,  8.04023533E-13, -6.15501999E+03,
                       1.57743430E+01]),
                NASA([1893.09, 5000.00],
                     [ 1.47224340E+01,  2.74694228E-02, -1.26411130E-05,
                       2.28536389E-09, -1.48647100E-13, -1.31148306E+04,
                      -5.73135407E+01])))

species(name=u'C2H6(227)',
        atoms='H:6 C:2',
        thermo=(NASA([100.00, 1012.42],
                     [ 3.72239291E+00,  1.65083841E-03,  3.44175530E-05,
                      -3.76858229E-08,  1.24450657E-11, -1.15575901E+04,
                       4.68247999E+00]),
                NASA([1012.42, 5000.00],
                     [ 2.82848257E+00,  1.73040568E-02, -6.73334245E-06,
                       1.23742024E-09, -8.65676410E-14, -1.19978080E+04,
                       5.93811707E+00])))

species(name=u'C8H12(251)',
        atoms='H:12 C:8',
        thermo=(NASA([100.00, 1002.94],
                     [ 1.69489980E-02,  7.28189377E-02, -2.16585698E-05,
                      -2.40807783E-08,  1.44597041E-11,  1.38562447E+04,
                       3.07679077E+01]),
                NASA([1002.94, 5000.00],
                     [ 1.77276883E+01,  3.45993801E-02, -1.29781828E-05,
                       2.37500136E-09, -1.67643536E-13,  8.67334638E+03,
                      -6.28559377E+01])))

species(name=u'C8H12(255)',
        atoms='H:12 C:8',
        thermo=(NASA([100.00, 1016.52],
                     [-1.10429280E-01,  7.70814645E-02, -3.47833140E-05,
                      -1.00302869E-08,  9.42640217E-12,  1.21750142E+04,
                       2.97645889E+01]),
                NASA([1016.52, 5000.00],
                     [ 1.75623558E+01,  3.50022757E-02, -1.32158186E-05,
                       2.40320183E-09, -1.68059077E-13,  7.16317806E+03,
                      -6.27651255E+01])))

species(name=u'C5H8c(260)',
        atoms='H:8 C:5',
        thermo=(NASA([100.00, 1004.86],
                     [ 1.98273955E+00,  3.49998332E-02,  6.98515281E-06,
                      -3.05031334E-08,  1.32246652E-11,  6.96521034E+03,
                       1.60818191E+01]),
                NASA([1004.86, 5000.00],
                     [ 1.01246420E+01,  2.42323877E-02, -9.24886971E-06,
                       1.70115950E-09, -1.20059732E-13,  4.23624320E+03,
                      -2.86745770E+01])))

species(name=u'C5H10(279)',
        atoms='H:10 C:5',
        thermo=(NASA([100.00, 1054.71],
                     [ 2.07229480E+00,  3.36844001E-02,  1.40189744E-05,
                      -3.27909735E-08,  1.24687335E-11, -7.08395627E+03,
                       1.85216921E+01]),
                NASA([1054.71, 5000.00],
                     [ 7.69906317E+00,  3.25047725E-02, -1.29748243E-05,
                       2.39429532E-09, -1.67023134E-13, -9.39218314E+03,
                      -1.42396425E+01])))

species(name=u'C6H12(445)',
        atoms='H:12 C:6',
        thermo=(NASA([100.00, 1083.88],
                     [ 1.36789859E+00,  4.60332170E-02,  1.03872042E-05,
                      -3.61548644E-08,  1.41144370E-11, -9.21215455E+03,
                       2.36685346E+01]),
                NASA([1083.88, 5000.00],
                     [ 1.07762218E+01,  3.82405519E-02, -1.60946813E-05,
                       3.05489613E-09, -2.16276948E-13, -1.28334192E+04,
                      -2.97757608E+01])))

species(name=u'C6H12(447)',
        atoms='H:12 C:6',
        thermo=(NASA([100.00, 3144.72],
                     [ 1.62486600E+00,  5.81706891E-02, -2.94074668E-05,
                       6.41453677E-09, -5.27511383E-13, -9.95070725E+03,
                       2.05730324E+01]),
                NASA([3144.72, 5000.00],
                     [ 2.63049846E+01,  2.09689465E-02, -8.89163385E-06,
                       1.47783715E-09, -8.83519412E-14, -2.26006402E+04,
                      -1.22203751E+02])))

species(name=u'C3H8(451)',
        atoms='H:8 C:3',
        thermo=(NASA([100.00, 989.99],
                     [ 3.06336167E+00,  1.29214561E-02,  3.47032808E-05,
                      -4.70946154E-08,  1.71384141E-11, -1.43905789E+04,
                       1.07835592E+01]),
                NASA([989.99, 5000.00],
                     [ 5.60440043E+00,  2.19528785E-02, -8.22080610E-06,
                       1.50103993E-09, -1.05635358E-13, -1.58394038E+04,
                      -6.22623300E+00])))

species(name=u'C6H12(452)',
        atoms='H:12 C:6',
        thermo=(NASA([100.00, 1698.33],
                     [ 1.59095742E+00,  5.26758494E-02, -1.83561979E-05,
                      -1.06676417E-09,  1.11255271E-12, -1.06220126E+04,
                       2.16531738E+01]),
                NASA([1698.33, 5000.00],
                     [ 1.44977568E+01,  3.62929517E-02, -1.62656052E-05,
                       2.97191363E-09, -1.97262818E-13, -1.70273370E+04,
                      -5.34016107E+01])))

species(name=u'C6H12(453)',
        atoms='H:12 C:6',
        thermo=(NASA([100.00, 1917.57],
                     [ 2.29989638E+00,  4.93347109E-02, -1.39908418E-05,
                      -2.79410381E-09,  1.20747058E-12, -1.03230301E+04,
                       1.84311611E+01]),
                NASA([1917.57, 5000.00],
                     [ 1.85703860E+01,  3.37500613E-02, -1.61580314E-05,
                       2.95111967E-09, -1.92346931E-13, -1.99376584E+04,
                      -7.94569206E+01])))

species(name=u'S(896)',
        atoms='H:16 C:10',
        thermo=(NASA([100.00, 1073.16],
                     [-1.50972285E+00,  1.05101628E-01, -5.86439696E-05,
                       3.76033903E-09,  5.34869929E-12,  8.19168588E+03,
                       4.07405000E+01]),
                NASA([1073.16, 5000.00],
                     [ 2.10565908E+01,  4.89293596E-02, -1.91815748E-05,
                       3.50525863E-09, -2.43320497E-13,  1.73937738E+03,
                      -7.72181386E+01])))

species(name=u'S(900)',
        atoms='H:16 C:10',
        thermo=(NASA([100.00, 1138.69],
                     [-1.69481957E+00,  1.10097571E-01, -7.41550457E-05,
                       2.05582411E-08, -6.65290714E-13,  6.36021932E+03,
                       3.99210422E+01]),
                NASA([1138.69, 5000.00],
                     [ 2.14208455E+01,  4.85617025E-02, -1.89986475E-05,
                       3.43258540E-09, -2.35214430E-13, -1.78986228E+02,
                      -8.01989831E+01])))

species(name=u'C7H12(905)',
        atoms='H:12 C:7',
        thermo=(NASA([100.00, 999.68],
                     [ 4.29571406E-01,  6.49379719E-02, -1.42316263E-05,
                      -2.68110632E-08,  1.46756236E-11,  1.33179837E+03,
                       2.65680971E+01]),
                NASA([999.68, 5000.00],
                     [ 1.58208064E+01,  3.35710199E-02, -1.25070130E-05,
                       2.27563528E-09, -1.59971208E-13, -3.25538740E+03,
                      -5.52328098E+01])))

species(name=u'S(3651)',
        atoms='H:12 C:6',
        thermo=(NASA([100.00, 1083.88],
                     [ 1.36789859E+00,  4.60332170E-02,  1.03872042E-05,
                      -3.61548644E-08,  1.41144370E-11, -1.08959252E+04,
                       2.21769936E+01]),
                NASA([1083.88, 5000.00],
                     [ 1.07762218E+01,  3.82405519E-02, -1.60946813E-05,
                       3.05489613E-09, -2.16276948E-13, -1.45171898E+04,
                      -3.12673018E+01])))

species(name=u'X(1)',
        atoms='X:1',
        thermo=(NASA([100.00, 1554.80],
                     [ 7.10139498E-03, -4.25619522E-05,  8.98533016E-08,
                      -7.80193649E-11,  2.32465471E-14, -8.76101712E-01,
                      -3.11211229E-02]),
                NASA([1554.80, 5000.00],
                     [ 1.60299900E-01, -2.52235409E-04,  1.14181275E-07,
                      -1.21471653E-11,  3.85790025E-16, -7.08100885E+01,
                      -9.09527530E-01])))

species(name=u'HX(5)',
        atoms='H:1 X:1',
        thermo=(NASA([100.00, 952.91],
                     [-3.80965452E-01,  5.47228709E-03,  2.60912778E-06,
                      -9.64961980E-09,  4.63946753E-12,  5.08308927E+03,
                       1.01725550E+00]),
                NASA([952.91, 5000.00],
                     [ 2.80339655E+00, -5.41047017E-04,  4.99507978E-07,
                      -7.54963647E-11,  3.06772366E-15,  4.14233985E+03,
                      -1.59436787E+01])))

species(name=u'C2H3X(37)',
        atoms='H:3 C:2 X:1',
        thermo=(NASA([100.00, 928.62],
                     [ 3.83091018E+00, -8.76381562E-03,  6.97956896E-05,
                      -8.67969174E-08,  3.33218121E-11,  8.75012182E+02,
                      -1.81151753E+01]),
                NASA([928.62, 5000.00],
                     [ 8.78054562E+00,  1.92497720E-03,  8.25825014E-07,
                      -1.63749818E-10,  5.71728318E-15, -1.42439094E+03,
                      -4.90588618E+01])))

species(name=u'allylX(38)',
        atoms='H:5 C:3 X:1',
        thermo=(NASA([100.00, 937.34],
                     [ 3.44148119E+00, -3.47700003E-03,  8.25933681E-05,
                      -1.05556823E-07,  4.04445066E-11, -2.66682595E+03,
                      -6.88846669E+00]),
                NASA([937.34, 5000.00],
                     [ 9.98148902E+00,  8.92268754E-03, -1.75442587E-06,
                       3.12285771E-10, -2.84156572E-14, -5.66362359E+03,
                      -4.74626902E+01])))

species(name=u'CH3X(39)',
        atoms='H:3 C:1 X:1',
        thermo=(NASA([100.00, 848.30],
                     [-1.21090496E+00,  2.92390681E-02, -4.49011079E-05,
                       3.86009808E-08, -1.30361041E-11, -6.84550445E+03,
                       6.80939750E+00]),
                NASA([848.30, 5000.00],
                     [ 1.62290877E+00,  1.12987268E-02, -5.08316908E-06,
                       9.46833581E-10, -6.42885536E-14, -7.16156936E+03,
                      -5.42501059E+00])))

species(name=u'C2H5X(40)',
        atoms='H:5 C:2 X:1',
        thermo=(NASA([100.00, 803.81],
                     [-1.64625424E+00,  3.89626488E-02, -4.31128887E-05,
                       2.97076939E-08, -8.80222915E-12, -1.08291795E+04,
                       9.27323637E+00]),
                NASA([803.81, 5000.00],
                     [ 1.97598112E+00,  2.09382766E-02, -9.47916922E-06,
                       1.81392948E-09, -1.27206354E-13, -1.14115283E+04,
                      -7.41107956E+00])))

species(name=u'C4H7X(41)',
        atoms='H:7 C:4 X:1',
        thermo=(NASA([100.00, 971.02],
                     [ 2.64365035E+00,  1.79007589E-02,  4.24443189E-05,
                      -6.44028479E-08,  2.49593993E-11, -6.62353538E+03,
                      -6.69991651E+00]),
                NASA([971.02, 5000.00],
                     [ 9.25871667E+00,  2.04064152E-02, -7.39143670E-06,
                       1.37021231E-09, -9.94133357E-14, -9.31101951E+03,
                      -4.56426102E+01])))

species(name=u'C4H7X(42)',
        atoms='H:7 C:4 X:1',
        thermo=(NASA([100.00, 986.67],
                     [ 2.45798205E+00,  2.47217336E-02,  2.01285964E-05,
                      -4.02735564E-08,  1.62485845E-11,  1.77865167E+03,
                      -5.12991781E+00]),
                NASA([986.67, 5000.00],
                     [ 8.87898065E+00,  2.09043993E-02, -7.83851223E-06,
                       1.44076477E-09, -1.02346878E-13, -5.69704442E+02,
                      -4.15007572E+01])))

species(name=u'C4H7X(43)',
        atoms='H:7 C:4 X:1',
        thermo=(NASA([100.00, 965.06],
                     [ 2.56877619E+00,  1.97500674E-02,  3.72961301E-05,
                      -6.04017092E-08,  2.39989018E-11, -6.89495624E+03,
                      -8.56564322E+00]),
                NASA([965.06, 5000.00],
                     [ 9.89778724E+00,  1.86142959E-02, -6.38884453E-06,
                       1.17309353E-09, -8.55406646E-14, -9.67124745E+03,
                      -5.07182348E+01])))

species(name=u'C4H7X(44)',
        atoms='H:7 C:4 X:1',
        thermo=(NASA([100.00, 949.35],
                     [ 2.54254539E+00,  1.77389010E-02,  4.93877612E-05,
                      -7.72878178E-08,  3.10660019E-11, -5.66932294E+03,
                      -8.46783968E+00]),
                NASA([949.35, 5000.00],
                     [ 1.15220223E+01,  1.60005944E-02, -4.89823595E-06,
                       8.83972924E-10, -6.63710570E-14, -9.00085528E+03,
                      -5.98888028E+01])))

species(name=u'C3H5X(45)',
        atoms='H:5 C:3 X:1',
        thermo=(NASA([100.00, 939.06],
                     [ 3.23683359E+00,  3.73132320E-03,  6.01028900E-05,
                      -8.16245569E-08,  3.18536011E-11, -2.93822941E+03,
                      -1.35295467E+01]),
                NASA([939.06, 5000.00],
                     [ 9.70183185E+00,  9.48309646E-03, -2.25953763E-06,
                       3.98431327E-10, -3.27118882E-14, -5.62025834E+03,
                      -5.21282869E+01])))

species(name=u'C4H7X(46)',
        atoms='H:7 C:4 X:1',