units(length='cm', time='s', quantity='mol', act_energy='kcal/mol')

ideal_gas(name='gas',
          elements="H D T C Ci O Oi N Ne Ar He Si S Cl X",
          species="""n-heptane   Ar          He          Ne
                     N2          C2H4(2)     C4H8-1(3)   C4H8-2(4)
                     C4H6(7)     C6H8(9)     C3H6(32)    H2(68)
                     C8H10(113)  S(181)      S(185)      S(309)
                     S(590)      C6H10(706)  C8H12(707)  C5H8(1096)
                     C2H6(4465)  S(4471)     S(4472)     CH4(4533)
                     C5H8(4540)  S(4545)     S(4703)     S(5664)
                     S(6829)     S(8060)     S(8063)     S(9350)
                     S(9470)     C4H8(9946)  S(10397)    S(10546)
                     S(11938)    S(16598)    S(19119)    S(33640)""",
          reactions='gas-*',
          initial_state=state(temperature=300.0, pressure=OneAtm))

ideal_interface(name='surface1',
                elements="H D T C Ci O Oi N Ne Ar He Si S Cl X",
                species="""X(1)        HX(5)       C2H3X(37)   allylX(38)
                          CH3X(39)    C2H5X(40)   C4H7X(41)   C4H7X(42)
                          C4H7X(43)   C4H7X(44)   C3H5X(45)   C4H7X(46)
                          C4H7X(47)   C4H5X(80)   C4H5X(81)   C6H9X(97)
                          C6H9X(98)   SX(111)     SX(112)     C6H7X(132)
                          C6H7X(133)  C6H7X(134)  C6H9X(159)  SX(161)
                          C6H9X(192)  SX(197)     SX(198)     SX(219)
                          C6H7X(233)  SX(234)     C8H9X(524)  C8H9X(525)
                          C8H9X(526)  C8H9X(527)  SX(562)     C6H9X(697)
                          C5H7X(700)  SX(776)     C6H9X(777)  SX(778)
                          SX(779)     SX(780)     SX(781)     SX(782)
                          SX(1101)    SX(1102)    SX(1103)    SX(1501)
                          SX(1503)    SX(1504)    SX(1505)    SX(1506)
                          SX(1507)    SX(1508)    SX(1509)    SX(1513)
                          SX(1514)    SX(2179)    SX(2180)    SX(2181)
                          SX(2182)    SX(2183)    SX(2184)    SX(2185)
                          SX(2186)    SX(2189)    SX(2191)    SX(4610)
                          SX(4695)    SX(4696)    SX(4697)    SX(4946)
                          SX(4947)    SX(5207)    SX(5298)    SX(5387)
                          SX(5658)    SX(5794)    SX(5795)    SX(5796)
                          SX(5797)    SX(5798)    SX(5799)    SX(5800)
                          SX(5801)    SX(6655)    SX(6749)    SX(6865)
                          SX(6866)    SX(6867)    SX(7605)    SX(7815)
                          SX(7817)    SX(7964)    SX(7965)    SX(7966)
                          SX(7967)    SX(7968)    SX(9156)    SX(9157)
                          SX(9274)    SX(9394)    SX(10055)   SX(10556)
                          SX(10557)   SX(10558)   SX(10559)   SX(10560)
                          SX(10561)   SX(11833)   SX(22440)   SX(23040)
                          SX(23444)   SX(23445)   SX(23650)   SX(23651)
                          SX(23652)   SX(25343)   SX(25557)   SX(26419)
                          SX(27506)   SX(27726)   SX(27727)   SX(29357)
                          SX(30041)   SX(30042)   SX(30969)   SX(30970)
                          SX(31663)   SX(31904)   SX(31905)   SX(32392)
                          SX(32393)   SX(33139)   SX(33141)   SX(33144)
                          SX(33937)   SX(33938)   SX(33942)   SX(37392)
                          SX(38425)   SX(38888)   SX(39150)   SX(43866)
                          SX(44430)   SX(44431)   SX(44432)   SX(44433)
                          SX(44434)   SX(46890)   SX(47430)   SX(48284)
                          SX(49464)   SX(49754)   SX(50319)   SX(50917)
                          SX(51521)   SX(51822)   SX(62179)   SX(62534)
                          SX(64446)   SX(65147)   SX(66880)   SX(67230)
                          SX(67901)   SX(70969)   SX(72789)   SX(74647)
                          SX(75022)   SX(75392)""",
                site_density=2.72e-09,
                phases="gas",
          reactions='surface1-*',
                initial_state=state(temperature=300.0, pressure=OneAtm))

#-------------------------------------------------------------------------------
# Element data
#-------------------------------------------------------------------------------

element(symbol=u'X', atomic_mass=195.083)
element(symbol=u'Ci', atomic_mass=13.003)
element(symbol=u'D', atomic_mass=2.014)
element(symbol=u'Oi', atomic_mass=18.0)
element(symbol=u'T', atomic_mass=3.016)
#-------------------------------------------------------------------------------
# Species data
#-------------------------------------------------------------------------------

species(name=u'n-heptane',
        atoms='H:16 C:7',
        thermo=(NASA([100.00, 1262.73],
                     [-2.91681405E-03,  7.69373649E-02, -3.48025563E-05,
                       1.86095180E-09,  2.01573617E-12, -2.57829342E+04,
                       3.00312148E+01]),
                NASA([1262.73, 5000.00],
                     [ 1.38377915E+01,  4.85945016E-02, -1.95474548E-05,
                       3.52837178E-09, -2.39064676E-13, -3.05141556E+04,
                      -4.48642836E+01])))

species(name=u'Ar',
        atoms='Ar:1',
        thermo=(NASA([200.00, 1000.00],
                     [ 2.50000000E+00,  0.00000000E+00,  0.00000000E+00,
                       0.00000000E+00,  0.00000000E+00, -7.45375000E+02,
                       4.37967000E+00]),
                NASA([1000.00, 6000.00],
                     [ 2.50000000E+00,  0.00000000E+00,  0.00000000E+00,
                       0.00000000E+00,  0.00000000E+00, -7.45375000E+02,
                       4.37967000E+00])))

species(name=u'He',
        atoms='He:1',
        thermo=(NASA([200.00, 1000.00],
                     [ 2.50000000E+00,  0.00000000E+00,  0.00000000E+00,
                       0.00000000E+00,  0.00000000E+00, -7.45375000E+02,
                       9.28724000E-01]),
                NASA([1000.00, 6000.00],
                     [ 2.50000000E+00,  0.00000000E+00,  0.00000000E+00,
                       0.00000000E+00,  0.00000000E+00, -7.45375000E+02,
                       9.28724000E-01])))

species(name=u'Ne',
        atoms='Ne:1',
        thermo=(NASA([200.00, 1000.00],
                     [ 2.50000000E+00,  0.00000000E+00,  0.00000000E+00,
                       0.00000000E+00,  0.00000000E+00, -7.45375000E+02,
                       3.35532000E+00]),
                NASA([1000.00, 6000.00],
                     [ 2.50000000E+00,  0.00000000E+00,  0.00000000E+00,
                       0.00000000E+00,  0.00000000E+00, -7.45375000E+02,
                       3.35532000E+00])))

species(name=u'N2',
        atoms='N:2',
        thermo=(NASA([200.00, 1000.00],
                     [ 3.53101000E+00, -1.23661000E-04, -5.02999000E-07,
                       2.43531000E-09, -1.40881000E-12, -1.04698000E+03,
                       2.96747000E+00]),
                NASA([1000.00, 6000.00],
                     [ 2.95258000E+00,  1.39690000E-03, -4.92632000E-07,
                       7.86010000E-11, -4.60755000E-15, -9.23949000E+02,
                       5.87189000E+00])))

species(name=u'C2H4(2)',
        atoms='H:4 C:2',
        thermo=(NASA([100.00, 979.36],
                     [ 3.97471606E+00, -4.75844285E-03,  4.16783770E-05,
                      -4.51392516E-08,  1.54224761E-11,  4.91540746E+03,
                       3.62430844E+00]),
                NASA([979.36, 5000.00],
                     [ 3.55660610E+00,  1.10627464E-02, -4.17019079E-06,
                       7.85586770E-10, -5.70060829E-14,  4.32046489E+03,
                       2.17719479E+00])))

species(name=u'C4H8-1(3)',
        atoms='H:8 C:4',
        thermo=(NASA([100.00, 1007.28],
                     [ 2.58772906E+00,  2.32777969E-02,  1.93412349E-05,
                      -3.55496333E-08,  1.36906009E-11, -1.91872926E+03,
                       1.45750618E+01]),
                NASA([1007.28, 5000.00],
                     [ 7.20517168E+00,  2.36361568E-02, -9.03150028E-06,
                       1.65392666E-09, -1.16019260E-13, -3.79733937E+03,
                      -1.24426257E+01])))

species(name=u'C4H8-2(4)',
        atoms='H:8 C:4',
        thermo=(NASA([100.00, 1157.79],
                     [ 2.51998327E+00,  2.76812799E-02,  9.43783469E-07,
                      -1.25009101E-08,  4.67144666E-12, -3.34374767E+03,
                       1.30195623E+01]),
                NASA([1157.79, 5000.00],
                     [ 6.04225708E+00,  2.60072350E-02, -1.04843374E-05,
                       1.90880922E-09, -1.30600505E-13, -4.86276511E+03,
                      -7.52715109E+00])))

species(name=u'C4H6(7)',
        atoms='H:6 C:4',
        thermo=(NASA([100.00, 946.05],
                     [ 2.80599310E+00,  1.02584471E-02,  6.17260255E-05,
                      -9.01642687E-08,  3.59116961E-11,  1.16584972E+04,
                       1.20621434E+01]),
                NASA([946.05, 5000.00],
                     [ 1.24693720E+01,  1.00553901E-02, -2.41206872E-06,
                       4.57077303E-10, -3.93160571E-14,  8.01077795E+03,
                      -4.36374720E+01])))

species(name=u'C6H8(9)',
        atoms='H:8 C:6',
        thermo=(NASA([100.00, 941.22],
                     [ 1.38427980E+00,  4.14411503E-02,  1.94287417E-05,
                      -6.16688700E-08,  2.86503633E-11,  1.76317461E+04,
                       1.93257509E+01]),
                NASA([941.22, 5000.00],
                     [ 1.69619680E+01,  1.57221707E-02, -4.10118367E-06,
                       6.95736344E-10, -5.26521484E-14,  1.29061672E+04,
                      -6.44097553E+01])))

species(name=u'C3H6(32)',
        atoms='H:6 C:3',
        thermo=(NASA([100.00, 983.75],
                     [ 3.31912102E+00,  8.17958674E-03,  3.34736123E-05,
                      -4.36193684E-08,  1.58213364E-11,  7.49325328E+02,
                       9.54025058E+00]),
                NASA([983.75, 5000.00],
                     [ 5.36755173E+00,  1.70743019E-02, -6.35107626E-06,
                       1.16619529E-09, -8.27620279E-14, -4.87138326E+02,
                      -4.54467529E+00])))

species(name=u'H2(68)',
        atoms='H:2',
        thermo=(NASA([100.00, 1959.08],
                     [ 3.43536412E+00,  2.12710353E-04, -2.78625043E-07,
                       3.40267167E-10, -7.76031998E-14, -1.03135984E+03,
                      -3.90841732E+00]),
                NASA([1959.08, 5000.00],
                     [ 2.78816583E+00,  5.87640942E-04,  1.59010417E-07,
                      -5.52739026E-11,  4.34310984E-15, -5.96144270E+02,
                       1.12732655E-01])))

species(name=u'C8H10(113)',
        atoms='H:10 C:8',
        thermo=(NASA([100.00, 941.38],
                     [ 8.64508879E-02,  6.59507123E-02,  1.49007776E-06,
                      -6.06862449E-08,  3.13845046E-11,  2.39088929E+04,
                       2.66192822E+01]),
                NASA([941.38, 5000.00],
                     [ 2.28417755E+01,  1.96704891E-02, -5.08803462E-06,
                       8.53682038E-10, -6.42382395E-14,  1.73909786E+04,
                      -9.36509497E+01])))

species(name=u'S(181)',
        atoms='H:16 C:12',
        thermo=(NASA([100.00, 985.43],
                     [-1.88304682E+00,  1.07042194E-01, -2.70554103E-05,
                      -4.30549514E-08,  2.47781880E-11,  4.00783494E+04,
                       4.74620913E+01]),
                NASA([985.43, 5000.00],
                     [ 2.44922294E+01,  5.06805346E-02, -1.84366585E-05,
                       3.32433721E-09, -2.33631810E-13,  3.24185269E+04,
                      -9.18863874E+01])))

species(name=u'S(185)',
        atoms='H:16 C:12',
        thermo=(NASA([100.00, 992.45],
                     [-1.36726188E+00,  9.09276671E-02,  1.69902518E-05,
                      -8.53947805E-08,  3.84301239E-11,  2.11993195E+04,
                       3.87738109E+01]),
                NASA([992.45, 5000.00],
                     [ 2.42201531E+01,  5.14040751E-02, -1.94056379E-05,
                       3.62910452E-09, -2.61722320E-13,  1.29880616E+04,
                      -1.00257920E+02])))

species(name=u'S(309)',
        atoms='H:16 C:12',
        thermo=(NASA([100.00, 967.86],
                     [-1.32209228E+00,  8.47378361E-02,  4.59787499E-05,
                      -1.23781967E-07,  5.42497769E-11,  2.23199283E+04,
                       3.57020946E+01]),
                NASA([967.86, 5000.00],
                     [ 2.71811605E+01,  4.57697461E-02, -1.58000646E-05,
                       2.92345730E-09, -2.14846023E-13,  1.31102045E+04,
                      -1.19952912E+02])))

species(name=u'S(590)',
        atoms='H:18 C:14',
        thermo=(NASA([100.00, 978.36],
                     [-3.18102182E+00,  1.31559178E-01, -4.50505557E-05,
                      -4.19472838E-08,  2.74325758E-11,  4.63554994E+04,
                       5.54489525E+01]),
                NASA([978.36, 5000.00],
                     [ 3.03471171E+01,  5.46694580E-02, -1.94462003E-05,
                       3.48751813E-09, -2.45644373E-13,  3.69143752E+04,
                      -1.20293067E+02])))

species(name=u'C6H10(706)',
        atoms='H:10 C:6',
        thermo=(NASA([100.00, 1020.63],
                     [ 9.97427413E-01,  5.59777045E-02, -2.05880600E-05,
                      -1.17182304E-08,  8.13452041E-12,  6.30749855E+03,
                       2.38941836E+01]),
                NASA([1020.63, 5000.00],
                     [ 1.33828218E+01,  2.83661253E-02, -1.07663110E-05,
                       1.95749020E-09, -1.36589418E-13,  2.68926840E+03,
                      -4.14511818E+01])))

species(name=u'C8H12(707)',
        atoms='H:12 C:8',
        thermo=(NASA([100.00, 1002.94],
                     [ 1.69489980E-02,  7.28189377E-02, -2.16585698E-05,
                      -2.40807783E-08,  1.44597041E-11,  1.38562447E+04,
                       3.07679077E+01]),
                NASA([1002.94, 5000.00],
                     [ 1.77276883E+01,  3.45993801E-02, -1.29781828E-05,
                       2.37500136E-09, -1.67643536E-13,  8.67334638E+03,
                      -6.28559377E+01])))

species(name=u'C5H8(1096)',
        atoms='H:8 C:5',
        thermo=(NASA([100.00, 1004.86],
                     [ 1.98273955E+00,  3.49998332E-02,  6.98515281E-06,
                      -3.05031334E-08,  1.32246652E-11,  6.96521034E+03,
                       1.60818191E+01]),
                NASA([1004.86, 5000.00],
                     [ 1.01246420E+01,  2.42323877E-02, -9.24886971E-06,
                       1.70115950E-09, -1.20059732E-13,  4.23624320E+03,
                      -2.86745770E+01])))

species(name=u'C2H6(4465)',
        atoms='H:6 C:2',
        thermo=(NASA([100.00, 1012.42],
                     [ 3.72239291E+00,  1.65083841E-03,  3.44175530E-05,
                      -3.76858229E-08,  1.24450657E-11, -1.15575901E+04,
                       4.68247999E+00]),
                NASA([1012.42, 5000.00],
                     [ 2.82848257E+00,  1.73040568E-02, -6.73334245E-06,
                       1.23742024E-09, -8.65676410E-14, -1.19978080E+04,
                       5.93811707E+00])))

species(name=u'S(4471)',
        atoms='H:12 C:8',
        thermo=(NASA([100.00, 966.56],
                     [-1.28183216E-01,  7.35572918E-02, -1.44333618E-05,
                      -3.89698452E-08,  2.17299794E-11,  1.04422483E+04,
                       2.89601759E+01]),
                NASA([966.56, 5000.00],
                     [ 2.02785414E+01,  2.99584765E-02, -1.01704686E-05,
                       1.81720743E-09, -1.29537878E-13,  4.58909334E+03,
                      -7.86679341E+01])))

species(name=u'S(4472)',
        atoms='H:12 C:8',
        thermo=(NASA([100.00, 966.56],
                     [-1.28183216E-01,  7.35572918E-02, -1.44333618E-05,
                      -3.89698452E-08,  2.17299794E-11,  1.04422483E+04,
                       2.89601759E+01]),
                NASA([966.56, 5000.00],
                     [ 2.02785414E+01,  2.99584765E-02, -1.01704686E-05,
                       1.81720743E-09, -1.29537878E-13,  4.58909334E+03,
                      -7.86679341E+01])))

species(name=u'CH4(4533)',
        atoms='H:4 C:1',
        thermo=(NASA([100.00, 1084.12],
                     [ 4.20541524E+00, -5.35557362E-03,  2.51123265E-05,
                      -2.13762843E-08,  5.97523937E-12, -1.01619433E+04,
                      -9.21279283E-01]),
                NASA([1084.12, 5000.00],
                     [ 9.08265721E-01,  1.14540858E-02, -4.57173828E-06,
                       8.29191671E-10, -5.66314895E-14, -9.71997444E+03,
                       1.39930944E+01])))

species(name=u'C5H8(4540)',
        atoms='H:8 C:5',
        thermo=(NASA([100.00, 1049.25],
                     [ 2.01062155E+00,  3.15407187E-02,  2.07789480E-05,
                      -4.44088985E-08,  1.72419112E-11,  7.01383967E+03,
                       1.65768346E+01]),
                NASA([1049.25, 5000.00],
                     [ 1.14809937E+01,  2.45641673E-02, -1.08867259E-05,
                       2.16707025E-09, -1.59145781E-13,  3.42314914E+03,
                      -3.72078866E+01])))

species(name=u'S(4545)',
        atoms='H:10 C:7',
        thermo=(NASA([100.00, 960.58],
                     [ 5.40181259E-01,  6.14551349E-02, -1.12030877E-05,
                      -3.44223146E-08,  1.91302393E-11,  1.31395193E+04,
                       2.36489181E+01]),
                NASA([960.58, 5000.00],
                     [ 1.78943603E+01,  2.43013009E-02, -8.01425042E-06,
                       1.41741320E-09, -1.01048701E-13,  8.18561381E+03,
                      -6.78088657E+01])))

species(name=u'S(4703)',
        atoms='H:10 C:6',
        thermo=(NASA([100.00, 1020.63],
                     [ 9.97427413E-01,  5.59777045E-02, -2.05880600E-05,
                      -1.17182304E-08,  8.13452041E-12,  6.84996860E+03,
                       2.32490569E+01]),
                NASA([1020.63, 5000.00],
                     [ 1.33828218E+01,  2.83661253E-02, -1.07663110E-05,
                       1.95749020E-09, -1.36589418E-13,  3.23173845E+03,
                      -4.20963085E+01])))

species(name=u'S(5664)',
        atoms='H:12 C:8',
        thermo=(NASA([100.00, 1016.52],
                     [-1.10429280E-01,  7.70814645E-02, -3.47833140E-05,
                      -1.00302869E-08,  9.42640217E-12,  1.21750142E+04,
                       2.97645889E+01]),
                NASA([1016.52, 5000.00],
                     [ 1.75623558E+01,  3.50022757E-02, -1.32158186E-05,
                       2.40320183E-09, -1.68059077E-13,  7.16317806E+03,
                      -6.27651255E+01])))

species(name=u'S(6829)',
        atoms='H:10 C:6',
        thermo=(NASA([100.00, 1020.63],
                     [ 9.97427413E-01,  5.59777045E-02, -2.05880600E-05,
                      -1.17182304E-08,  8.13452041E-12,  6.30749855E+03,
                       2.38941836E+01]),
                NASA([1020.63, 5000.00],
                     [ 1.33828218E+01,  2.83661253E-02, -1.07663110E-05,
                       1.95749020E-09, -1.36589418E-13,  2.68926840E+03,
                      -4.14511818E+01])))

species(name=u'S(8060)',
        atoms='H:20 C:14',
        thermo=(NASA([100.00, 1011.57],
                     [-3.42892131E+00,  1.39526306E-01, -6.20547431E-05,
                      -1.91525262E-08,  1.74881563E-11,  3.27141759E+04,
                       5.73738157E+01]),
                NASA([1011.57, 5000.00],
                     [ 2.81047235E+01,  6.44251188E-02, -2.42270607E-05,
                       4.38073522E-09, -3.05170101E-13,  2.37972471E+04,
                      -1.07661628E+02])))

species(name=u'S(8063)',
        atoms='H:20 C:14',
        thermo=(NASA([100.00, 1011.57],
                     [-3.42892131E+00,  1.39526306E-01, -6.20547431E-05,
                      -1.91525262E-08,  1.74881563E-11,  3.27141759E+04,
                       5.73738157E+01]),
                NASA([1011.57, 5000.00],
                     [ 2.81047235E+01,  6.44251188E-02, -2.42270607E-05,
                       4.38073522E-09, -3.05170101E-13,  2.37972471E+04,
                      -1.07661628E+02])))

species(name=u'S(9350)',
        atoms='H:14 C:8',
        thermo=(NASA([100.00, 1014.29],
                     [-3.67121846E-01,  8.14233516E-02, -3.11110886E-05,
                      -1.65487757E-08,  1.19185866E-11, -3.02333684E+03,
                       3.00035003E+01]),
                NASA([1014.29, 5000.00],
                     [ 1.79686767E+01,  3.98264136E-02, -1.50150741E-05,
                       2.72531006E-09, -1.90287561E-13, -8.32275149E+03,
                      -6.65042554E+01])))

species(name=u'S(9470)',
        atoms='H:14 C:8',
        thermo=(NASA([100.00, 1506.76],
                     [ 5.49675181E-02,  8.43985440E-02, -5.64633487E-05,
                       1.98661295E-08, -2.94599969E-12, -7.77393079E+02,
                       2.95663347E+01]),
                NASA([1506.76, 5000.00],
                     [ 1.39949012E+01,  4.73919655E-02, -1.96226018E-05,
                       3.56583689E-09, -2.41458224E-13, -4.97819756E+03,
                      -4.34005510E+01])))

species(name=u'C4H8(9946)',
        atoms='H:8 C:4',
        thermo=(NASA([100.00, 1061.33],
                     [ 2.52504770E+00,  2.64752782E-02,  7.08359238E-06,
                      -2.07731462E-08,  8.00430055E-12, -4.02607130E+03,
                       1.28857274E+01]),
                NASA([1061.33, 5000.00],
                     [ 6.48672669E+00,  2.49943921E-02, -9.83283171E-06,
                       1.79343299E-09, -1.24008235E-13, -5.62452310E+03,
                      -1.00316397E+01])))

species(name=u'S(10397)',
        atoms='H:10 C:6',
        thermo=(NASA([100.00, 1036.89],
                     [ 1.50874221E+00,  4.27939676E-02,  1.00407781E-05,
                      -3.76644958E-08,  1.56320088E-11,  7.74480595E+03,
                       2.33493905E+01]),
                NASA([1036.89, 5000.00],
                     [ 1.16601041E+01,  3.10397815E-02, -1.26024374E-05,
                       2.38495409E-09, -1.70150727E-13,  4.16633351E+03,
                      -3.30972272E+01])))

species(name=u'S(10546)',
        atoms='H:12 C:8',
        thermo=(NASA([100.00, 1086.85],
                     [ 4.16666707E-01,  6.71551541E-02, -2.11380215E-05,
                      -1.29841076E-08,  7.80074417E-12,  1.12931799E+04,
                       2.75110729E+01]),
                NASA([1086.85, 5000.00],
                     [ 1.33702771E+01,  4.16858848E-02, -1.66324643E-05,
                       3.04995240E-09, -2.11355555E-13,  7.16599721E+03,
                      -4.20947236E+01])))

species(name=u'S(11938)',
        atoms='H:20 C:14',
        thermo=(NASA([100.00, 1008.85],
                     [-3.44050986E+00,  1.39963602E-01, -6.31220650E-05,
                      -1.83609087E-08,  1.73442832E-11,  3.17953081E+04,
                       5.63459188E+01]),
                NASA([1008.85, 5000.00],
                     [ 2.80889481E+01,  6.43237044E-02, -2.40653006E-05,
                       4.33890594E-09, -3.01822684E-13,  2.29211449E+04,
                      -1.08495424E+02])))

species(name=u'S(16598)',
        atoms='H:18 C:13',
        thermo=(NASA([100.00, 1012.56],
                     [-2.76042161E+00,  1.27425608E-01, -5.88459171E-05,
                      -1.45495147E-08,  1.48507229E-11,  3.54114394E+04,
                       5.20618900E+01]),
                NASA([1012.56, 5000.00],
                     [ 2.57052475E+01,  5.87928932E-02, -2.20847986E-05,
                       3.98416351E-09, -2.76943609E-13,  2.74005350E+04,
                      -9.67158069E+01])))

species(name=u'S(19119)',
        atoms='H:18 C:13',
        thermo=(NASA([100.00, 1012.56],
                     [-2.76042161E+00,  1.27425608E-01, -5.88459171E-05,
                      -1.45495147E-08,  1.48507229E-11,  3.54114394E+04,
                       5.20618900E+01]),
                NASA([1012.56, 5000.00],
                     [ 2.57052475E+01,  5.87928932E-02, -2.20847986E-05,
                       3.98416351E-09, -2.76943609E-13,  2.74005350E+04,
                      -9.67158069E+01])))

species(name=u'S(33640)',
        atoms='H:8 C:7',
        thermo=(NASA([100.00, 966.81],
                     [ 1.90138903E+00,  2.67868079E-02,  6.30523366E-05,
                      -9.95224287E-08,  3.94205761E-11,  1.54781489E+04,
                       1.80530900E+01]),
                NASA([966.81, 5000.00],
                     [ 1.41488720E+01,  2.45164605E-02, -8.51969957E-06,
                       1.61189695E-09, -1.20790154E-13,  1.08478608E+04,
                      -5.23192761E+01])))

species(name=u'X(1)',
        atoms='X:1',
        thermo=(NASA([100.00, 1554.80],
                     [ 7.10139498E-03, -4.25619522E-05,  8.98533016E-08,
                      -7.80193649E-11,  2.32465471E-14, -8.76101712E-01,
                      -3.11211229E-02]),
                NASA([1554.80, 5000.00],
                     [ 1.60299900E-01, -2.52235409E-04,  1.14181275E-07,
                      -1.21471653E-11,  3.85790025E-16, -7.08100885E+01,
                      -9.09527530E-01])))

species(name=u'HX(5)',
        atoms='H:1 X:1',
        thermo=(NASA([100.00, 952.91],
                     [-3.80965452E-01,  5.47228709E-03,  2.60912778E-06,
                      -9.64961980E-09,  4.63946753E-12, -7.19163862E+02,
                       1.01725550E+00]),
                NASA([952.91, 5000.00],
                     [ 2.80339655E+00, -5.41047017E-04,  4.99507978E-07,
                      -7.54963647E-11,  3.06772366E-15, -1.65991328E+03,
                      -1.59436787E+01])))

species(name=u'C2H3X(37)',
        atoms='H:3 C:2 X:1',
        thermo=(NASA([100.00, 928.62],
                     [ 3.83091018E+00, -8.76381562E-03,  6.97956896E-05,
                      -8.67969174E-08,  3.33218121E-11,  3.77613875E+03,
                      -1.81151753E+01]),
                NASA([928.62, 5000.00],
                     [ 8.78054562E+00,  1.92497720E-03,  8.25825014E-07,
                      -1.63749818E-10,  5.71728318E-15,  1.47673562E+03,
                      -4.90588618E+01])))

species(name=u'allylX(38)',
        atoms='H:5 C:3 X:1',
        thermo=(NASA([100.00, 937.34],
                     [ 3.44148119E+00, -3.47700003E-03,  8.25933681E-05,
                      -1.05556823E-07,  4.04445066E-11,  2.34300616E+02,
                      -6.88846669E+00]),
                NASA([937.34, 5000.00],
                     [ 9.98148902E+00,  8.92268754E-03, -1.75442587E-06,
                       3.12285771E-10, -2.84156572E-14, -2.76249703E+03,
                      -4.74626902E+01])))

species(name=u'CH3X(39)',
        atoms='H:3 C:1 X:1',
        thermo=(NASA([100.00, 848.30],
                     [-1.21090496E+00,  2.92390681E-02, -4.49011079E-05,
                       3.86009808E-08, -1.30361041E-11, -3.94437789E+03,
                       6.80939750E+00]),
                NASA([848.30, 5000.00],
                     [ 1.62290877E+00,  1.12987268E-02, -5.08316908E-06,
                       9.46833581E-10, -6.42885536E-14, -4.26044280E+03,
                      -5.42501059E+00])))

species(name=u'C2H5X(40)',
        atoms='H:5 C:2 X:1',
        thermo=(NASA([100.00, 803.81],
                     [-1.64625424E+00,  3.89626488E-02, -4.31128887E-05,
                       2.97076939E-08, -8.80222915E-12, -7.92805291E+03,
                       9.27323637E+00]),
                NASA([803.81, 5000.00],
                     [ 1.97598112E+00,  2.09382766E-02, -9.47916922E-06,
                       1.81392948E-09, -1.27206354E-13, -8.51040169E+03,
                      -7.41107956E+00])))

species(name=u'C4H7X(41)',
        atoms='H:7 C:4 X:1',
        thermo=(NASA([100.00, 971.02],
                     [ 2.64365035E+00,  1.79007589E-02,  4.24443189E-05,
                      -6.44028479E-08,  2.49593993E-11, -3.72240882E+03,
                      -6.69991651E+00]),
                NASA([971.02, 5000.00],
                     [ 9.25871667E+00,  2.04064152E-02, -7.39143670E-06,
                       1.37021231E-09, -9.94133357E-14, -6.40989294E+03,
                      -4.56426102E+01])))

species(name=u'C4H7X(42)',
        atoms='H:7 C:4 X:1',
        thermo=(NASA([100.00, 986.67],
                     [ 2.45798205E+00,  2.47217336E-02,  2.01285964E-05,
                      -4.02735564E-08,  1.62485845E-11,  4.67977823E+03,
                      -5.12991781E+00]),
                NASA([986.67, 5000.00],
                     [ 8.87898065E+00,  2.09043993E-02, -7.83851223E-06,
                       1.44076477E-09, -1.02346878E-13,  2.33142212E+03,
                      -4.15007572E+01])))

species(name=u'C4H7X(43)',
        atoms='H:7 C:4 X:1',
        thermo=(NASA([100.00, 965.06],
                     [ 2.56877619E+00,  1.97500674E-02,  3.72961301E-05,
                      -6.04017092E-08,  2.39989018E-11, -3.99382968E+03,
                      -8.56564322E+00]),
                NASA([965.06, 5000.00],
                     [ 9.89778724E+00,  1.86142959E-02, -6.38884453E-06,
                       1.17309353E-09, -8.55406646E-14, -6.77012088E+03,
                      -5.07182348E+01])))

species(name=u'C4H7X(44)',
        atoms='H:7 C:4 X:1',
        thermo=(NASA([100.00, 949.35],
                     [ 2.54254539E+00,  1.77389010E-02,  4.93877612E-05,
                      -7.72878178E-08,  3.10660019E-11, -2.76819637E+03,
                      -8.46783968E+00]),
                NASA([949.35, 5000.00],