units(length='cm', time='s', quantity='mol', act_energy='kcal/mol')

ideal_gas(name='gas',
          elements="H D T C Ci O Oi N Ne Ar He Si S Cl X",
          species="""n-heptane   Ar          He          Ne
                     N2          C2H4(2)     C4H8-1(3)   C4H8-2(4)
                     C4H6(7)     C3H6(24)    C6H8(85)    C8H10(90)
                     C6H10(100)  C4H10(101)  C4H8(168)   C6H10(169)
                     C6H12(176)  C8H12(572)  S(910)      S(1136)
                     S(1177)     S(1622)     S(1643)     S(1909)
                     S(1967)     S(2496)     S(2860)     S(3076)
                     S(3221)     S(3453)     S(3688)     S(3847)
                     S(5270)     S(5330)     S(5515)     S(5661)
                     S(6023)     S(6047)     S(6588)     S(6725)
                     S(7063)     S(7097)     S(7250)     S(7874)
                     S(8587)     S(8716)     S(9645)     S(9656)
                     S(11346)    S(11540)    S(11555)    S(12013)
                     S(12291)    S(13498)""",
          reactions='gas-*',
          initial_state=state(temperature=300.0, pressure=OneAtm))

ideal_interface(name='surface1',
                elements="H D T C Ci O Oi N Ne Ar He Si S Cl X",
                species="""X(1)        HX(5)       C2H3X(27)   C2H5X(30)
                          C4H7X(31)   C4H7X(32)   C4H7X(33)   C4H7X(34)
                          C4H7X(36)   C4H7X(37)   C4H9X(44)   C4H9X(45)
                          C2H2X(49)   C6H11X(51)  C6H11X(52)  C4H5X(53)
                          C4H5X(57)   C6H9X(66)   C6H9X(81)   C8H11X(87)
                          C8H11X(88)  C5H7X(108)  C6H9X(124)  C4H7X(134)
                          SX(135)     C4H6X(163)  SX(164)     SX(167)
                          C6H9X(171)  C6H9X(182)  SX(190)     C6H9X(220)
                          SX(221)     SX(222)     C3H7X(278)  SX(301)
                          C6H9X(329)  C6H9X(332)  SX(341)     SX(342)
                          C4H9X(412)  SX(419)     C6H9X(474)  C5H6X(533)
                          SX(537)     C6H8X(567)  SX(568)     C5H7X(634)
                          SX(791)     SX(811)     SX(812)     SX(829)
                          SX(830)     SX(904)     SX(906)     SX(945)
                          SX(947)     SX(948)     SX(951)     SX(991)
                          SX(993)     SX(998)     SX(999)     SX(1054)
                          SX(1088)    SX(1089)    SX(1137)    SX(1200)
                          SX(1201)    SX(1222)    SX(1223)    SX(1385)
                          SX(1386)    SX(1439)    SX(1455)    SX(1456)
                          SX(1479)    SX(1624)    SX(1678)    SX(1679)
                          SX(1680)    SX(1681)    SX(1715)    SX(1767)
                          SX(1813)    SX(1814)    SX(1815)    SX(1910)
                          SX(1973)    SX(2137)    SX(2470)    SX(2497)
                          SX(2498)    SX(2565)    SX(2566)    SX(2801)
                          SX(2802)    SX(2822)    SX(2925)    SX(2933)
                          SX(2997)    SX(2998)    SX(3000)    SX(3069)
                          SX(3071)    SX(3074)    SX(3216)    SX(3219)
                          SX(3223)    SX(3289)    SX(3290)    SX(3367)
                          SX(3374)    SX(3445)    SX(3446)    SX(3447)
                          SX(3449)    SX(3523)    SX(3532)    SX(3682)
                          SX(3684)    SX(3843)    SX(3924)    SX(3945)
                          SX(3948)    SX(4320)    SX(4343)    SX(4357)
                          SX(4358)    SX(4408)    SX(4495)    SX(4496)
                          SX(5014)    SX(5116)    SX(5266)    SX(5334)
                          SX(5343)    SX(5373)    SX(5399)    SX(5400)
                          SX(5420)    SX(5465)    SX(5466)    SX(5469)
                          SX(5533)    SX(5560)    SX(5561)    SX(5562)
                          SX(5563)    SX(5586)    SX(5657)    SX(5695)
                          SX(5723)    SX(5724)    SX(5725)    SX(5726)
                          SX(6024)    SX(6025)    SX(6069)    SX(6070)
                          SX(6090)    SX(6091)    SX(6214)    SX(6498)
                          SX(6584)    SX(6587)    SX(6612)    SX(6690)
                          SX(6721)    SX(6768)    SX(6785)    SX(6786)
                          SX(6816)    SX(6987)    SX(7014)    SX(7015)
                          SX(7016)    SX(7039)    SX(7064)    SX(7099)
                          SX(7100)    SX(7274)    SX(7275)    SX(7296)
                          SX(7342)    SX(7343)    SX(7344)    SX(7401)
                          SX(7402)    SX(7403)    SX(7847)    SX(7875)
                          SX(7895)    SX(7924)    SX(8038)    SX(8150)
                          SX(8183)    SX(8184)    SX(8274)    SX(8275)
                          SX(8276)    SX(8304)    SX(8305)    SX(8554)
                          SX(8589)    SX(8610)    SX(8611)    SX(8651)
                          SX(8712)    SX(8753)    SX(8807)    SX(8808)
                          SX(8810)    SX(9170)    SX(9191)    SX(9192)
                          SX(9193)    SX(9219)    SX(9220)    SX(9221)
                          SX(9289)    SX(9313)    SX(9456)    SX(9672)
                          SX(9673)    SX(9712)    SX(9713)    SX(9739)
                          SX(9931)    SX(9958)    SX(9959)    SX(9960)
                          SX(10052)   SX(10079)   SX(10105)   SX(10162)
                          SX(10163)   SX(10164)   SX(10302)   SX(10782)
                          SX(11341)   SX(11342)   SX(11365)   SX(11375)
                          SX(11377)   SX(11392)   SX(11393)   SX(11394)
                          SX(11395)   SX(11440)   SX(11534)   SX(11571)
                          SX(11609)   SX(11819)   SX(11928)   SX(11953)
                          SX(11954)   SX(12014)   SX(12287)   SX(13826)
                          SX(13955)   SX(13956)   SX(14210)   SX(14636)""",
                site_density=2.72e-09,
                phases="gas",
          reactions='surface1-*',
                initial_state=state(temperature=300.0, pressure=OneAtm))

#-------------------------------------------------------------------------------
# Element data
#-------------------------------------------------------------------------------

element(symbol=u'X', atomic_mass=195.083)
element(symbol=u'Ci', atomic_mass=13.003)
element(symbol=u'D', atomic_mass=2.014)
element(symbol=u'Oi', atomic_mass=18.0)
element(symbol=u'T', atomic_mass=3.016)
#-------------------------------------------------------------------------------
# Species data
#-------------------------------------------------------------------------------

species(name=u'n-heptane',
        atoms='H:16 C:7',
        thermo=(NASA([100.00, 1262.73],
                     [-2.91681405E-03,  7.69373649E-02, -3.48025563E-05,
                       1.86095180E-09,  2.01573617E-12, -2.57829342E+04,
                       3.00312148E+01]),
                NASA([1262.73, 5000.00],
                     [ 1.38377915E+01,  4.85945016E-02, -1.95474548E-05,
                       3.52837178E-09, -2.39064676E-13, -3.05141556E+04,
                      -4.48642836E+01])))

species(name=u'Ar',
        atoms='Ar:1',
        thermo=(NASA([200.00, 1000.00],
                     [ 2.50000000E+00,  0.00000000E+00,  0.00000000E+00,
                       0.00000000E+00,  0.00000000E+00, -7.45375000E+02,
                       4.37967000E+00]),
                NASA([1000.00, 6000.00],
                     [ 2.50000000E+00,  0.00000000E+00,  0.00000000E+00,
                       0.00000000E+00,  0.00000000E+00, -7.45375000E+02,
                       4.37967000E+00])))

species(name=u'He',
        atoms='He:1',
        thermo=(NASA([200.00, 1000.00],
                     [ 2.50000000E+00,  0.00000000E+00,  0.00000000E+00,
                       0.00000000E+00,  0.00000000E+00, -7.45375000E+02,
                       9.28724000E-01]),
                NASA([1000.00, 6000.00],
                     [ 2.50000000E+00,  0.00000000E+00,  0.00000000E+00,
                       0.00000000E+00,  0.00000000E+00, -7.45375000E+02,
                       9.28724000E-01])))

species(name=u'Ne',
        atoms='Ne:1',
        thermo=(NASA([200.00, 1000.00],
                     [ 2.50000000E+00,  0.00000000E+00,  0.00000000E+00,
                       0.00000000E+00,  0.00000000E+00, -7.45375000E+02,
                       3.35532000E+00]),
                NASA([1000.00, 6000.00],
                     [ 2.50000000E+00,  0.00000000E+00,  0.00000000E+00,
                       0.00000000E+00,  0.00000000E+00, -7.45375000E+02,
                       3.35532000E+00])))

species(name=u'N2',
        atoms='N:2',
        thermo=(NASA([200.00, 1000.00],
                     [ 3.53101000E+00, -1.23661000E-04, -5.02999000E-07,
                       2.43531000E-09, -1.40881000E-12, -1.04698000E+03,
                       2.96747000E+00]),
                NASA([1000.00, 6000.00],
                     [ 2.95258000E+00,  1.39690000E-03, -4.92632000E-07,
                       7.86010000E-11, -4.60755000E-15, -9.23949000E+02,
                       5.87189000E+00])))

species(name=u'C2H4(2)',
        atoms='H:4 C:2',
        thermo=(NASA([100.00, 979.36],
                     [ 3.97471606E+00, -4.75844285E-03,  4.16783770E-05,
                      -4.51392516E-08,  1.54224761E-11,  4.91540746E+03,
                       3.62430844E+00]),
                NASA([979.36, 5000.00],
                     [ 3.55660610E+00,  1.10627464E-02, -4.17019079E-06,
                       7.85586770E-10, -5.70060829E-14,  4.32046489E+03,
                       2.17719479E+00])))

species(name=u'C4H8-1(3)',
        atoms='H:8 C:4',
        thermo=(NASA([100.00, 1007.28],
                     [ 2.58772906E+00,  2.32777969E-02,  1.93412349E-05,
                      -3.55496333E-08,  1.36906009E-11, -1.91872926E+03,
                       1.45750618E+01]),
                NASA([1007.28, 5000.00],
                     [ 7.20517168E+00,  2.36361568E-02, -9.03150028E-06,
                       1.65392666E-09, -1.16019260E-13, -3.79733937E+03,
                      -1.24426257E+01])))

species(name=u'C4H8-2(4)',
        atoms='H:8 C:4',
        thermo=(NASA([100.00, 1157.79],
                     [ 2.51998327E+00,  2.76812799E-02,  9.43783469E-07,
                      -1.25009101E-08,  4.67144666E-12, -3.34374767E+03,
                       1.30195623E+01]),
                NASA([1157.79, 5000.00],
                     [ 6.04225708E+00,  2.60072350E-02, -1.04843374E-05,
                       1.90880922E-09, -1.30600505E-13, -4.86276511E+03,
                      -7.52715109E+00])))

species(name=u'C4H6(7)',
        atoms='H:6 C:4',
        thermo=(NASA([100.00, 946.05],
                     [ 2.80599310E+00,  1.02584471E-02,  6.17260255E-05,
                      -9.01642687E-08,  3.59116961E-11,  1.16584972E+04,
                       1.20621434E+01]),
                NASA([946.05, 5000.00],
                     [ 1.24693720E+01,  1.00553901E-02, -2.41206872E-06,
                       4.57077303E-10, -3.93160571E-14,  8.01077795E+03,
                      -4.36374720E+01])))

species(name=u'C3H6(24)',
        atoms='H:6 C:3',
        thermo=(NASA([100.00, 983.75],
                     [ 3.31912102E+00,  8.17958674E-03,  3.34736123E-05,
                      -4.36193684E-08,  1.58213364E-11,  7.49325328E+02,
                       9.54025058E+00]),
                NASA([983.75, 5000.00],
                     [ 5.36755173E+00,  1.70743019E-02, -6.35107626E-06,
                       1.16619529E-09, -8.27620279E-14, -4.87138326E+02,
                      -4.54467529E+00])))

species(name=u'C6H8(85)',
        atoms='H:8 C:6',
        thermo=(NASA([100.00, 972.94],
                     [ 1.82686070E+00,  3.47046353E-02,  2.41070171E-05,
                      -5.44847920E-08,  2.29388832E-11,  1.99100661E+04,
                       1.81393315E+01]),
                NASA([972.94, 5000.00],
                     [ 1.21686202E+01,  2.40472785E-02, -8.58151834E-06,
                       1.57034031E-09, -1.12795334E-13,  1.63897115E+04,
                      -3.92195169E+01])))

species(name=u'C8H10(90)',
        atoms='H:10 C:8',
        thermo=(NASA([100.00, 1006.91],
                     [ 9.59099136E-01,  5.26052795E-02,  1.05118295E-05,
                      -4.60808495E-08,  1.99632153E-11,  2.84660811E+04,
                       2.42924801E+01]),
                NASA([1006.91, 5000.00],
                     [ 1.34171277E+01,  3.60526403E-02, -1.38971709E-05,
                       2.56761905E-09, -1.81631637E-13,  2.42875578E+04,
                      -4.41873377E+01])))

species(name=u'C6H10(100)',
        atoms='H:10 C:6',
        thermo=(NASA([100.00, 1020.63],
                     [ 9.97427413E-01,  5.59777045E-02, -2.05880600E-05,
                      -1.17182304E-08,  8.13452041E-12,  6.30749855E+03,
                       2.38941836E+01]),
                NASA([1020.63, 5000.00],
                     [ 1.33828218E+01,  2.83661253E-02, -1.07663110E-05,
                       1.95749020E-09, -1.36589418E-13,  2.68926840E+03,
                      -4.14511818E+01])))

species(name=u'C4H10(101)',
        atoms='H:10 C:4',
        thermo=(NASA([100.00, 1147.60],
                     [ 2.16918413E+00,  3.43904632E-02, -1.61564236E-06,
                      -1.30726562E-08,  5.17350451E-12, -1.72505136E+04,
                       1.46546701E+01]),
                NASA([1147.60, 5000.00],
                     [ 6.78903089E+00,  3.03598162E-02, -1.21262050E-05,
                       2.19945025E-09, -1.50289312E-13, -1.91057969E+04,
                      -1.17329103E+01])))

species(name=u'C4H8(168)',
        atoms='H:8 C:4',
        thermo=(NASA([100.00, 1061.33],
                     [ 2.52504770E+00,  2.64752782E-02,  7.08359238E-06,
                      -2.07731462E-08,  8.00430055E-12, -4.02607130E+03,
                       1.28857274E+01]),
                NASA([1061.33, 5000.00],
                     [ 6.48672669E+00,  2.49943921E-02, -9.83283171E-06,
                       1.79343299E-09, -1.24008235E-13, -5.62452310E+03,
                      -1.00316397E+01])))

species(name=u'C6H10(169)',
        atoms='H:10 C:6',
        thermo=(NASA([100.00, 1020.63],
                     [ 9.97427413E-01,  5.59777045E-02, -2.05880600E-05,
                      -1.17182304E-08,  8.13452041E-12,  6.30749855E+03,
                       2.38941836E+01]),
                NASA([1020.63, 5000.00],
                     [ 1.33828218E+01,  2.83661253E-02, -1.07663110E-05,
                       1.95749020E-09, -1.36589418E-13,  2.68926840E+03,
                      -4.14511818E+01])))

species(name=u'C6H12(176)',
        atoms='H:12 C:6',
        thermo=(NASA([100.00, 3144.72],
                     [ 1.62486600E+00,  5.81706891E-02, -2.94074668E-05,
                       6.41453677E-09, -5.27511383E-13, -9.95070725E+03,
                       2.05730324E+01]),
                NASA([3144.72, 5000.00],
                     [ 2.63049846E+01,  2.09689465E-02, -8.89163385E-06,
                       1.47783715E-09, -8.83519412E-14, -2.26006402E+04,
                      -1.22203751E+02])))

species(name=u'C8H12(572)',
        atoms='H:12 C:8',
        thermo=(NASA([100.00, 1520.46],
                     [ 3.33256816E-01,  7.70233903E-02, -5.19909225E-05,
                       1.84125603E-08, -2.72977416E-12,  1.52768255E+04,
                       2.88681811E+01]),
                NASA([1520.46, 5000.00],
                     [ 1.38154091E+01,  4.15547541E-02, -1.69995468E-05,
                       3.07009936E-09, -2.07104980E-13,  1.11770134E+04,
                      -4.18245982E+01])))

species(name=u'S(910)',
        atoms='H:14 C:10',
        thermo=(NASA([100.00, 1058.59],
                     [-8.93711933E-01,  8.91741947E-02, -2.73813033E-05,
                      -2.46213529E-08,  1.43429648E-11,  2.53642104E+04,
                       3.82840879E+01]),
                NASA([1058.59, 5000.00],
                     [ 2.06707648E+01,  4.53765362E-02, -1.87214783E-05,
                       3.55501147E-09, -2.53451355E-13,  1.86870496E+04,
                      -7.69534078E+01])))

species(name=u'S(1136)',
        atoms='H:10 C:6',
        thermo=(NASA([100.00, 1057.19],
                     [ 1.32003537E+00,  4.84544999E-02, -5.79624644E-06,
                      -2.18049081E-08,  1.02541120E-11,  5.44649962E+03,
                       2.34886632E+01]),
                NASA([1057.19, 5000.00],
                     [ 1.18393426E+01,  3.09141412E-02, -1.24938257E-05,
                       2.33617137E-09, -1.64723228E-13,  1.97834329E+03,
                      -3.37293579E+01])))

species(name=u'S(1177)',
        atoms='H:10 C:6',
        thermo=(NASA([100.00, 1057.19],
                     [ 1.32003537E+00,  4.84544999E-02, -5.79624644E-06,
                      -2.18049081E-08,  1.02541120E-11,  5.44649962E+03,
                       2.34886632E+01]),
                NASA([1057.19, 5000.00],
                     [ 1.18393426E+01,  3.09141412E-02, -1.24938257E-05,
                       2.33617137E-09, -1.64723228E-13,  1.97834329E+03,
                      -3.37293579E+01])))

species(name=u'S(1622)',
        atoms='H:12 C:8',
        thermo=(NASA([100.00, 1093.32],
                     [ 2.36637697E-01,  7.13806073E-02, -3.04205239E-05,
                      -5.26761999E-09,  5.54497945E-12,  1.11111992E+04,
                       2.69517569E+01]),
                NASA([1093.32, 5000.00],
                     [ 1.41535962E+01,  4.07049724E-02, -1.61040105E-05,
                       2.93544374E-09, -2.02595338E-13,  6.85832312E+03,
                      -4.69635767E+01])))

species(name=u'S(1643)',
        atoms='H:12 C:8',
        thermo=(NASA([100.00, 1093.32],
                     [ 2.36638241E-01,  7.13806010E-02, -3.04205030E-05,
                      -5.26764556E-09,  5.54498963E-12,  1.09350726E+04,
                       2.64146056E+01]),
                NASA([1093.32, 5000.00],
                     [ 1.41535930E+01,  4.07049777E-02, -1.61040135E-05,
                       2.93544444E-09, -2.02595395E-13,  6.68219791E+03,
                      -4.75007076E+01])))

species(name=u'S(1909)',
        atoms='H:10 C:6',
        thermo=(NASA([100.00, 1020.63],
                     [ 9.97427413E-01,  5.59777045E-02, -2.05880600E-05,
                      -1.17182304E-08,  8.13452041E-12,  2.84333919E+03,
                       1.95659973E+01]),
                NASA([1020.63, 5000.00],
                     [ 1.33828218E+01,  2.83661253E-02, -1.07663110E-05,
                       1.95749020E-09, -1.36589418E-13, -7.74890955E+02,
                      -4.57793681E+01])))

species(name=u'S(1967)',
        atoms='H:10 C:6',
        thermo=(NASA([100.00, 2066.82],
                     [ 1.96487466E+00,  5.04479236E-02, -2.24823496E-05,
                       3.26198053E-09,  2.73496389E-15,  6.31812967E+03,
                       1.91308704E+01]),
                NASA([2066.82, 5000.00],
                     [ 2.01362223E+01,  2.52311191E-02, -1.14030833E-05,
                       2.01775234E-09, -1.28532875E-13, -3.31865112E+03,
                      -8.68696867E+01])))

species(name=u'S(2496)',
        atoms='H:10 C:6',
        thermo=(NASA([100.00, 1057.19],
                     [ 1.32003537E+00,  4.84544999E-02, -5.79624644E-06,
                      -2.18049081E-08,  1.02541120E-11,  5.39114554E+03,
                       2.15965599E+01]),
                NASA([1057.19, 5000.00],
                     [ 1.18393426E+01,  3.09141412E-02, -1.24938257E-05,
                       2.33617137E-09, -1.64723228E-13,  1.92298921E+03,
                      -3.56214612E+01])))

species(name=u'S(2860)',
        atoms='H:12 C:6',
        thermo=(NASA([100.00, 1698.33],
                     [ 1.59095742E+00,  5.26758494E-02, -1.83561979E-05,
                      -1.06676417E-09,  1.11255271E-12, -1.06220126E+04,
                       2.16531738E+01]),
                NASA([1698.33, 5000.00],
                     [ 1.44977568E+01,  3.62929517E-02, -1.62656052E-05,
                       2.97191363E-09, -1.97262818E-13, -1.70273370E+04,
                      -5.34016107E+01])))

species(name=u'S(3076)',
        atoms='H:14 C:8',
        thermo=(NASA([100.00, 1127.64],
                     [-4.64068528E-01,  8.62080391E-02, -5.25691144E-05,
                       1.10364952E-08,  9.56014758E-13, -4.80798140E+03,
                       3.00996902E+01]),
                NASA([1127.64, 5000.00],
                     [ 1.67490257E+01,  4.20738599E-02, -1.63745215E-05,
                       2.94789904E-09, -2.01524080E-13, -9.76606900E+03,
                      -5.97825402E+01])))

species(name=u'S(3221)',
        atoms='H:14 C:8',
        thermo=(NASA([100.00, 1671.22],
                     [ 6.00593588E-03,  8.22902775E-02, -5.21906280E-05,
                       1.69018127E-08, -2.26567699E-12, -2.90545636E+03,
                       3.04844537E+01]),
                NASA([1671.22, 5000.00],
                     [ 1.60336626E+01,  4.39280364E-02, -1.77580786E-05,
                       3.16607876E-09, -2.10894628E-13, -8.26251099E+03,
                      -5.50705106E+01])))

species(name=u'S(3453)',
        atoms='H:14 C:8',
        thermo=(NASA([100.00, 1012.24],
                     [-2.09223904E-01,  7.77576239E-02, -2.33131684E-05,
                      -2.29517400E-08,  1.38173607E-11, -3.93589315E+03,
                       2.97288385E+01]),
                NASA([1012.24, 5000.00],
                     [ 1.72293105E+01,  4.06072674E-02, -1.53260637E-05,
                       2.78503282E-09, -1.94638165E-13, -9.09341114E+03,
                      -6.26514103E+01])))

species(name=u'S(3688)',
        atoms='H:14 C:8',
        thermo=(NASA([100.00, 1012.24],
                     [-2.09223904E-01,  7.77576239E-02, -2.33131684E-05,
                      -2.29517400E-08,  1.38173607E-11, -3.93589315E+03,
                       2.97288385E+01]),
                NASA([1012.24, 5000.00],
                     [ 1.72293105E+01,  4.06072674E-02, -1.53260637E-05,
                       2.78503282E-09, -1.94638165E-13, -9.09341114E+03,
                      -6.26514103E+01])))

species(name=u'S(3847)',
        atoms='H:14 C:8',
        thermo=(NASA([100.00, 1012.24],
                     [-2.09223792E-01,  7.77576226E-02, -2.33131637E-05,
                      -2.29517461E-08,  1.38173633E-11, -3.60880083E+03,
                       2.98848359E+01]),
                NASA([1012.24, 5000.00],
                     [ 1.72293100E+01,  4.06072682E-02, -1.53260642E-05,
                       2.78503293E-09, -1.94638174E-13, -8.76631861E+03,
                      -6.24954097E+01])))

species(name=u'S(5270)',
        atoms='H:16 C:10',
        thermo=(NASA([100.00, 1137.21],
                     [-1.39512879E+00,  1.02007951E-01, -5.24031564E-05,
                       1.24503760E-09,  4.93721364E-12,  8.17455261E+03,
                       3.92275140E+01]),
                NASA([1137.21, 5000.00],
                     [ 2.07766669E+01,  5.11854141E-02, -2.11971422E-05,
                       3.95557339E-09, -2.76182462E-13,  1.37525526E+03,
                      -7.83122207E+01])))

species(name=u'S(5330)',
        atoms='H:14 C:9',
        thermo=(NASA([100.00, 1058.81],
                     [-4.80214366E-01,  8.12845515E-02, -1.99325268E-05,
                      -2.73662156E-08,  1.45585297E-11,  1.28397249E+04,
                       3.40810371E+01]),
                NASA([1058.81, 5000.00],
                     [ 1.87507808E+01,  4.43694308E-02, -1.82621507E-05,
                       3.45837188E-09, -2.46000794E-13,  6.76416406E+03,
                      -6.92558607E+01])))

species(name=u'S(5515)',
        atoms='H:14 C:8',
        thermo=(NASA([100.00, 1127.65],
                     [-4.64075804E-01,  8.62081213E-02, -5.25693841E-05,
                       1.10368174E-08,  9.55889732E-13, -4.63185444E+03,
                       2.99437186E+01]),
                NASA([1127.65, 5000.00],
                     [ 1.67490753E+01,  4.20737793E-02, -1.63744765E-05,
                       2.94788867E-09, -2.01523236E-13, -9.58996453E+03,
                      -5.99388201E+01])))

species(name=u'S(5661)',
        atoms='H:16 C:10',
        thermo=(NASA([100.00, 1202.34],
                     [-1.38171707E+00,  1.02527707E-01, -5.76139519E-05,
                       8.83189608E-09,  1.87836120E-12,  6.70045932E+03,
                       3.94405744E+01]),
                NASA([1202.34, 5000.00],
                     [ 2.05781044E+01,  5.14764910E-02, -2.13775472E-05,
                       3.96184350E-09, -2.74095202E-13, -1.70784484E+02,
                      -7.71640151E+01])))

species(name=u'S(6023)',
        atoms='H:14 C:8',
        thermo=(NASA([100.00, 1474.90],
                     [-2.31526120E-01,  8.72378445E-02, -6.14237076E-05,
                       2.29177878E-08, -3.55917867E-12, -6.43120954E+03,
                       2.81547587E+01]),
                NASA([1474.90, 5000.00],
                     [ 1.55964562E+01,  4.43112931E-02, -1.77663233E-05,
                       3.18416127E-09, -2.14246112E-13, -1.11001152E+04,
                      -5.43565950E+01])))

species(name=u'S(6047)',
        atoms='H:14 C:8',
        thermo=(NASA([100.00, 1127.65],
                     [-4.64075804E-01,  8.62081213E-02, -5.25693841E-05,
                       1.10368174E-08,  9.55889732E-13, -4.63185444E+03,
                       2.99437186E+01]),
                NASA([1127.65, 5000.00],
                     [ 1.67490753E+01,  4.20737793E-02, -1.63744765E-05,
                       2.94788867E-09, -2.01523236E-13, -9.58996453E+03,
                      -5.99388201E+01])))

species(name=u'S(6588)',
        atoms='H:14 C:8',
        thermo=(NASA([100.00, 1671.22],
                     [ 6.00593588E-03,  8.22902775E-02, -5.21906280E-05,
                       1.69018127E-08, -2.26567699E-12, -2.90545636E+03,
                       3.04844537E+01]),
                NASA([1671.22, 5000.00],
                     [ 1.60336626E+01,  4.39280364E-02, -1.77580786E-05,
                       3.16607876E-09, -2.10894628E-13, -8.26251099E+03,
                      -5.50705106E+01])))

species(name=u'S(6725)',
        atoms='H:16 C:10',
        thermo=(NASA([100.00, 1202.34],
                     [-1.38171707E+00,  1.02527707E-01, -5.76139519E-05,
                       8.83189608E-09,  1.87836120E-12,  6.70045932E+03,
                       3.87474273E+01]),
                NASA([1202.34, 5000.00],
                     [ 2.05781044E+01,  5.14764910E-02, -2.13775472E-05,
                       3.96184350E-09, -2.74095202E-13, -1.70784484E+02,
                      -7.78571623E+01])))

species(name=u'S(7063)',
        atoms='H:14 C:8',
        thermo=(NASA([100.00, 1373.69],
                     [-3.36728153E-01,  9.06227345E-02, -6.79925966E-05,
                       2.74735953E-08, -4.62656276E-12, -6.61643037E+03,
                       2.73246824E+01]),
                NASA([1373.69, 5000.00],
                     [ 1.53491363E+01,  4.49475344E-02, -1.81175025E-05,
                       3.26862911E-09, -2.21455377E-13, -1.09259260E+04,
                      -5.33307897E+01])))

species(name=u'S(7097)',
        atoms='H:14 C:8',
        thermo=(NASA([100.00, 1474.90],
                     [-2.31526120E-01,  8.72378445E-02, -6.14237076E-05,
                       2.29177878E-08, -3.55917867E-12, -6.43120954E+03,
                       2.81547587E+01]),
                NASA([1474.90, 5000.00],
                     [ 1.55964562E+01,  4.43112931E-02, -1.77663233E-05,
                       3.18416127E-09, -2.14246112E-13, -1.11001152E+04,
                      -5.43565950E+01])))

species(name=u'S(7250)',
        atoms='H:14 C:8',
        thermo=(NASA([100.00, 1127.64],
                     [-4.64068528E-01,  8.62080391E-02, -5.25691144E-05,
                       1.10364952E-08,  9.56014758E-13, -4.80798140E+03,
                       3.00996902E+01]),
                NASA([1127.64, 5000.00],
                     [ 1.67490257E+01,  4.20738599E-02, -1.63745215E-05,
                       2.94789904E-09, -2.01524080E-13, -9.76606900E+03,
                      -5.97825402E+01])))

species(name=u'S(7874)',
        atoms='H:14 C:8',
        thermo=(NASA([100.00, 1474.88],
                     [-2.31529952E-01,  8.72378780E-02, -6.14237840E-05,
                       2.29178488E-08, -3.55919435E-12, -6.25508268E+03,
                       2.73056284E+01]),
                NASA([1474.88, 5000.00],
                     [ 1.55964017E+01,  4.43113825E-02, -1.77663735E-05,
                       3.18417293E-09, -2.14247066E-13, -1.09239645E+04,
                      -5.52054309E+01])))

species(name=u'S(8587)',
        atoms='H:18 C:10',
        thermo=(NASA([100.00, 1298.45],
                     [-8.02619836E-01,  1.10047638E-01, -7.69867461E-05,
                       2.96846531E-08, -5.02000461E-12, -1.19146775E+04,
                       3.59370409E+01]),
                NASA([1298.45, 5000.00],
                     [ 1.23608571E+01,  6.94968763E-02, -3.01422385E-05,
                       5.63350432E-09, -3.89330267E-13, -1.53331510E+04,
                      -3.10072407E+01])))

species(name=u'S(8716)',
        atoms='H:16 C:10',
        thermo=(NASA([100.00, 1202.34],
                     [-1.38171707E+00,  1.02527707E-01, -5.76139519E-05,
                       8.83189608E-09,  1.87836120E-12,  6.70045932E+03,
                       3.87474273E+01]),
                NASA([1202.34, 5000.00],
                     [ 2.05781044E+01,  5.14764910E-02, -2.13775472E-05,
                       3.96184350E-09, -2.74095202E-13, -1.70784484E+02,