units(length='cm', time='s', quantity='mol', act_energy='kcal/mol')

ideal_gas(name='gas',
          elements="H D T C Ci O Oi N Ne Ar He Si S Cl X",
          species="""n-heptane   Ar          He          Ne
                     N2          C2H4(2)     C4H8-1(3)   C4H8-2(4)
                     C4H6(7)     C6H8(9)     C3H6(24)    H2(47)
                     C8H10(88)   S(246)      S(249)      S(344)
                     S(353)      S(373)      C6H10(389)  C8H12(392)
                     C8H12(393)  C7H12(500)  C5H8c(510)  C7H10(514)
                     S(526)      C7H12(532)  C6H10(538)  C5H8g(629)
                     C7H10(633)  C7H12(651)  C9H14(655)  C6H10(661)
                     CH4(665)    C7H10(669)  S(684)      S(687)
                     S(688)      S(689)      S(690)      C7H12(695)
                     C4H8(696)   C2H6(698)   S(1016)     S(1025)
                     S(1257)     S(1566)     S(1860)     S(2218)
                     S(2255)     S(2259)     S(2260)     S(2406)
                     S(2416)     S(2501)     S(2583)     S(2633)
                     S(2765)     S(2958)     S(3070)     C3H8(3366)
                     S(3973)     S(3991)     S(4463)     S(4488)
                     S(6112)""",
          reactions='gas-*',
          initial_state=state(temperature=300.0, pressure=OneAtm))

ideal_interface(name='surface1',
                elements="H D T C Ci O Oi N Ne Ar He Si S Cl X",
                species="""X(1)        HX(5)       C2H3X(27)   allylX(28)
                          CH3X(29)    C2H5X(30)   C4H7X(31)   C4H7X(32)
                          C4H7X(33)   C4H7X(34)   C3H5X(35)   C4H7X(36)
                          C4H7X(37)   C4H5X(56)   C4H5X(57)   C6H9X(65)
                          C6H9X(66)   C6H9X(72)   C8H11X(77)  C8H11X(78)
                          C8H11X(85)  C6H7X(94)   C6H7X(95)   C6H7X(96)
                          SX(109)     SX(145)     SX(149)     SX(150)
                          C6H7X(159)  SX(165)     C8H9X(201)  C8H9X(202)
                          C8H9X(203)  C8H9X(204)  C7H9X(239)  SX(263)
                          C6H9X(264)  SX(265)     SX(266)     SX(267)
                          SX(268)     SX(269)     SX(270)     SX(271)
                          SX(272)     SX(303)     C8H9X(311)  SX(321)
                          SX(358)     SX(361)     SX(366)     SX(370)
                          SX(371)     SX(372)     C6H9X(409)  C3H5X(473)
                          SX(479)     SX(484)     C5H9X(506)  SX(511)
                          SX(512)     SX(563)     SX(564)     SX(630)
                          SX(667)     C5H7X(714)  SX(715)     SX(716)
                          SX(717)     SX(720)     C7H9X(735)  C5H7X(750)
                          C7H9X(775)  C5H7X(776)  C7H9X(777)  C7H9X(778)
                          C7H9X(779)  C7H9X(780)  SX(802)     SX(881)
                          SX(894)     SX(895)     SX(896)     SX(1026)
                          SX(1094)    SX(1095)    SX(1109)    SX(1120)
                          SX(1141)    SX(1171)    SX(1278)    SX(1279)
                          SX(1383)    SX(1384)    SX(1396)    SX(1398)
                          SX(1553)    SX(1557)    SX(1642)    SX(1772)
                          SX(1843)    SX(1844)    SX(1880)    SX(1884)
                          SX(1887)    SX(1888)    SX(1907)    SX(1938)
                          SX(1970)    SX(1971)    SX(1975)    SX(2060)
                          SX(2061)    SX(2213)    SX(2321)    SX(2322)
                          SX(2325)    SX(2326)    SX(2327)    SX(2348)
                          SX(2349)    SX(2350)    SX(2351)    SX(2352)
                          SX(2353)    SX(2354)    SX(2355)    SX(2356)
                          SX(2357)    SX(2781)    SX(2782)    SX(2783)
                          SX(2785)    SX(2786)    SX(2787)    SX(2788)
                          SX(2789)    SX(2805)    SX(2806)    SX(2807)
                          SX(3014)    SX(3288)    SX(3289)    SX(3437)
                          SX(3438)    SX(3439)    SX(3440)    SX(3441)
                          SX(3749)    SX(3761)    SX(3762)    SX(3763)
                          SX(3912)    SX(4046)    SX(4210)    SX(4211)
                          SX(4212)    SX(4213)    SX(4476)    SX(4479)
                          SX(4481)    SX(4500)    SX(4501)    SX(4546)
                          SX(4595)    SX(4801)    SX(4802)    SX(4829)
                          SX(4844)    SX(4845)    SX(4846)    SX(5027)
                          SX(5223)    SX(5224)    SX(5225)    SX(5478)
                          SX(5584)    SX(5585)    SX(5590)    SX(5595)
                          SX(5623)    SX(5624)    SX(5625)    SX(5626)
                          SX(5802)    SX(5887)    SX(5911)    SX(5915)
                          SX(5921)    SX(5922)    SX(5926)    SX(6123)
                          SX(6144)    SX(6145)    SX(6146)    SX(6147)
                          SX(6152)    SX(6153)    SX(6540)    SX(6541)
                          SX(6542)    SX(6543)    SX(6544)    SX(6545)
                          SX(6546)    SX(6619)    SX(6858)    SX(6859)
                          SX(6941)    SX(7080)    SX(7081)    SX(7284)
                          SX(7286)    SX(7288)    SX(7300)    SX(7344)
                          SX(7345)    SX(7560)    SX(7564)    SX(7598)
                          SX(7720)    SX(7721)    SX(7722)    SX(7739)
                          SX(8254)    SX(8256)    SX(8257)    SX(8258)
                          SX(8259)    SX(8449)    SX(8594)    SX(8823)
                          SX(8824)    SX(8878)    SX(9236)    SX(9368)
                          SX(9531)    SX(9585)    SX(10027)   SX(10028)
                          SX(10029)   SX(10030)   SX(10777)   SX(10985)
                          SX(11233)""",
                site_density=2.72e-09,
                phases="gas",
          reactions='surface1-*',
                initial_state=state(temperature=300.0, pressure=OneAtm))

#-------------------------------------------------------------------------------
# Element data
#-------------------------------------------------------------------------------

element(symbol=u'X', atomic_mass=195.083)
element(symbol=u'Ci', atomic_mass=13.003)
element(symbol=u'D', atomic_mass=2.014)
element(symbol=u'Oi', atomic_mass=18.0)
element(symbol=u'T', atomic_mass=3.016)
#-------------------------------------------------------------------------------
# Species data
#-------------------------------------------------------------------------------

species(name=u'n-heptane',
        atoms='H:16 C:7',
        thermo=(NASA([100.00, 1262.75],
                     [-2.93512125E-03,  7.69375610E-02, -3.48031525E-05,
                       1.86160506E-09,  2.01550529E-12, -2.57829334E+04,
                       3.00312819E+01]),
                NASA([1262.75, 5000.00],
                     [ 1.38379971E+01,  4.85941816E-02, -1.95472819E-05,
                       3.52833289E-09, -2.39061569E-13, -3.05142526E+04,
                      -4.48654615E+01])))

species(name=u'Ar',
        atoms='Ar:1',
        thermo=(NASA([200.00, 1000.00],
                     [ 2.50000000E+00,  0.00000000E+00,  0.00000000E+00,
                       0.00000000E+00,  0.00000000E+00, -7.45375000E+02,
                       4.37967000E+00]),
                NASA([1000.00, 6000.00],
                     [ 2.50000000E+00,  0.00000000E+00,  0.00000000E+00,
                       0.00000000E+00,  0.00000000E+00, -7.45375000E+02,
                       4.37967000E+00])))

species(name=u'He',
        atoms='He:1',
        thermo=(NASA([200.00, 1000.00],
                     [ 2.50000000E+00,  0.00000000E+00,  0.00000000E+00,
                       0.00000000E+00,  0.00000000E+00, -7.45375000E+02,
                       9.28724000E-01]),
                NASA([1000.00, 6000.00],
                     [ 2.50000000E+00,  0.00000000E+00,  0.00000000E+00,
                       0.00000000E+00,  0.00000000E+00, -7.45375000E+02,
                       9.28724000E-01])))

species(name=u'Ne',
        atoms='Ne:1',
        thermo=(NASA([200.00, 1000.00],
                     [ 2.50000000E+00,  0.00000000E+00,  0.00000000E+00,
                       0.00000000E+00,  0.00000000E+00, -7.45375000E+02,
                       3.35532000E+00]),
                NASA([1000.00, 6000.00],
                     [ 2.50000000E+00,  0.00000000E+00,  0.00000000E+00,
                       0.00000000E+00,  0.00000000E+00, -7.45375000E+02,
                       3.35532000E+00])))

species(name=u'N2',
        atoms='N:2',
        thermo=(NASA([200.00, 1000.00],
                     [ 3.53101000E+00, -1.23661000E-04, -5.02999000E-07,
                       2.43531000E-09, -1.40881000E-12, -1.04698000E+03,
                       2.96747000E+00]),
                NASA([1000.00, 6000.00],
                     [ 2.95258000E+00,  1.39690000E-03, -4.92632000E-07,
                       7.86010000E-11, -4.60755000E-15, -9.23949000E+02,
                       5.87189000E+00])))

species(name=u'C2H4(2)',
        atoms='H:4 C:2',
        thermo=(NASA([100.00, 979.37],
                     [ 3.97469045E+00, -4.75813325E-03,  4.16772624E-05,
                      -4.51377676E-08,  1.54218287E-11,  4.91540855E+03,
                       3.62439976E+00]),
                NASA([979.37, 5000.00],
                     [ 3.55670229E+00,  1.10625819E-02, -4.17009559E-06,
                       7.85564219E-10, -5.70042086E-14,  4.32042473E+03,
                       2.17665377E+00])))

species(name=u'C4H8-1(3)',
        atoms='H:8 C:4',
        thermo=(NASA([100.00, 1007.28],
                     [ 2.58772978E+00,  2.32777883E-02,  1.93412653E-05,
                      -3.55496729E-08,  1.36906178E-11, -1.91872929E+03,
                       1.45750592E+01]),
                NASA([1007.28, 5000.00],
                     [ 7.20516863E+00,  2.36361619E-02, -9.03150325E-06,
                       1.65392736E-09, -1.16019318E-13, -3.79733809E+03,
                      -1.24426086E+01])))

species(name=u'C4H8-2(4)',
        atoms='H:8 C:4',
        thermo=(NASA([100.00, 1157.78],
                     [ 2.51999305E+00,  2.76811707E-02,  9.44135366E-07,
                      -1.25013222E-08,  4.67160311E-12, -3.34374810E+03,
                       1.30195268E+01]),
                NASA([1157.78, 5000.00],
                     [ 6.04218222E+00,  2.60073554E-02, -1.04844041E-05,
                       1.90882450E-09, -1.30601743E-13, -4.86273126E+03,
                      -7.52672501E+00])))

species(name=u'C4H6(7)',
        atoms='H:6 C:4',
        thermo=(NASA([100.00, 946.05],
                     [ 2.80594317E+00,  1.02590609E-02,  6.17237648E-05,
                      -9.01611778E-08,  3.59103084E-11,  1.16584993E+04,
                       1.20623208E+01]),
                NASA([946.05, 5000.00],
                     [ 1.24695345E+01,  1.00551088E-02, -2.41190446E-06,
                       4.57038145E-10, -3.93127871E-14,  8.01071120E+03,
                      -4.36383840E+01])))

species(name=u'C6H8(9)',
        atoms='H:8 C:6',
        thermo=(NASA([100.00, 941.22],
                     [ 1.38427839E+00,  4.14411676E-02,  1.94286778E-05,
                      -6.16687823E-08,  2.86503237E-11,  1.76317462E+04,
                       1.93257559E+01]),
                NASA([941.22, 5000.00],
                     [ 1.69619725E+01,  1.57221629E-02, -4.10117912E-06,
                       6.95735258E-10, -5.26520576E-14,  1.29061653E+04,
                      -6.44097805E+01])))

species(name=u'C3H6(24)',
        atoms='H:6 C:3',
        thermo=(NASA([100.00, 983.75],
                     [ 3.31912202E+00,  8.17957465E-03,  3.34736557E-05,
                      -4.36194260E-08,  1.58213614E-11,  7.49325285E+02,
                       9.54024700E+00]),
                NASA([983.75, 5000.00],
                     [ 5.36754789E+00,  1.70743084E-02, -6.35108004E-06,
                       1.16619619E-09, -8.27621023E-14, -4.87136723E+02,
                      -4.54465373E+00])))

species(name=u'H2(47)',
        atoms='H:2',
        thermo=(NASA([100.00, 1959.08],
                     [ 3.43536411E+00,  2.12710383E-04, -2.78625110E-07,
                       3.40267219E-10, -7.76032129E-14, -1.03135984E+03,
                      -3.90841731E+00]),
                NASA([1959.08, 5000.00],
                     [ 2.78816619E+00,  5.87640475E-04,  1.59010635E-07,
                      -5.52739465E-11,  4.34311304E-15, -5.96144481E+02,
                       1.12730527E-01])))

species(name=u'C8H10(88)',
        atoms='H:10 C:8',
        thermo=(NASA([100.00, 941.39],
                     [ 8.64066480E-02,  6.59512573E-02,  1.48806368E-06,
                      -6.06834808E-08,  3.13832585E-11,  2.39088947E+04,
                       2.66194394E+01]),
                NASA([941.39, 5000.00],
                     [ 2.28419165E+01,  1.96702446E-02, -5.08789164E-06,
                       8.53647924E-10, -6.42353888E-14,  1.73909208E+04,
                      -9.36517408E+01])))

species(name=u'S(246)',
        atoms='H:14 C:10',
        thermo=(NASA([100.00, 988.70],
                     [-1.28102806E+00,  9.73401841E-02, -3.96908232E-05,
                      -2.28884425E-08,  1.70599444E-11,  2.01333918E+04,
                       3.80613708E+01]),
                NASA([988.70, 5000.00],
                     [ 2.35618038E+01,  3.86218886E-02, -1.40063844E-05,
                       2.54246881E-09, -1.80004120E-13,  1.31784898E+04,
                      -9.18377394E+01])))

species(name=u'S(249)',
        atoms='H:16 C:12',
        thermo=(NASA([100.00, 977.34],
                     [-2.74602372E+00,  1.25929208E-01, -6.64336490E-05,
                      -1.47524220E-08,  1.77489038E-11,  2.62279990E+04,
                       4.47491268E+01]),
                NASA([977.34, 5000.00],
                     [ 3.01372316E+01,  4.17343413E-02, -1.45467678E-05,
                       2.60498841E-09, -1.84395162E-13,  1.73938533E+04,
                      -1.25451411E+02])))

species(name=u'S(344)',
        atoms='H:16 C:12',
        thermo=(NASA([100.00, 979.75],
                     [-2.57869037E+00,  1.21854023E-01, -5.76779297E-05,
                      -2.17861138E-08,  1.97140182E-11,  2.64105280E+04,
                       4.53539313E+01]),
                NASA([979.75, 5000.00],
                     [ 2.94124921E+01,  4.26177219E-02, -1.50198166E-05,
                       2.70655256E-09, -1.92090563E-13,  1.76761779E+04,
                      -1.20913781E+02])))

species(name=u'S(353)',
        atoms='H:16 C:12',
        thermo=(NASA([100.00, 979.75],
                     [-2.57869037E+00,  1.21854023E-01, -5.76779297E-05,
                      -2.17861138E-08,  1.97140182E-11,  2.64105280E+04,
                       4.53539313E+01]),
                NASA([979.75, 5000.00],
                     [ 2.94124921E+01,  4.26177219E-02, -1.50198166E-05,
                       2.70655256E-09, -1.92090563E-13,  1.76761779E+04,
                      -1.20913781E+02])))

species(name=u'S(373)',
        atoms='H:14 C:10',
        thermo=(NASA([100.00, 988.70],
                     [-1.28102806E+00,  9.73401841E-02, -3.96908232E-05,
                      -2.28884425E-08,  1.70599444E-11,  2.01333918E+04,
                       3.80613708E+01]),
                NASA([988.70, 5000.00],
                     [ 2.35618038E+01,  3.86218886E-02, -1.40063844E-05,
                       2.54246881E-09, -1.80004120E-13,  1.31784898E+04,
                      -9.18377394E+01])))

species(name=u'C6H10(389)',
        atoms='H:10 C:6',
        thermo=(NASA([100.00, 1036.90],
                     [ 1.50872656E+00,  4.27941517E-02,  1.00401397E-05,
                      -3.76636824E-08,  1.56316704E-11,  7.74480663E+03,
                       2.33494466E+01]),
                NASA([1036.90, 5000.00],
                     [ 1.16601787E+01,  3.10396564E-02, -1.26023661E-05,
                       2.38493738E-09, -1.70149349E-13,  4.16630149E+03,
                      -3.30976488E+01])))

species(name=u'C8H12(392)',
        atoms='H:12 C:8',
        thermo=(NASA([100.00, 1002.94],
                     [ 1.69470520E-02,  7.28189610E-02, -2.16586522E-05,
                      -2.40806705E-08,  1.44596580E-11,  1.38562448E+04,
                       3.07679147E+01]),
                NASA([1002.94, 5000.00],
                     [ 1.77276964E+01,  3.45993664E-02, -1.29781749E-05,
                       2.37499951E-09, -1.67643382E-13,  8.67334297E+03,
                      -6.28559833E+01])))

species(name=u'C8H12(393)',
        atoms='H:12 C:8',
        thermo=(NASA([100.00, 1005.34],
                     [ 1.86690834E-01,  6.87130466E-02, -1.27841021E-05,
                      -3.12859178E-08,  1.65061399E-11,  1.40386717E+04,
                       3.13642208E+01]),
                NASA([1005.34, 5000.00],
                     [ 1.70020987E+01,  3.54849525E-02, -1.34527994E-05,
                       2.47698781E-09, -1.75377178E-13,  8.95578691E+03,
                      -5.83139818E+01])))

species(name=u'C7H12(500)',
        atoms='H:12 C:7',
        thermo=(NASA([100.00, 1072.04],
                     [ 7.34378816E-01,  6.01625520E-02, -1.25658367E-05,
                      -1.95625110E-08,  9.83607916E-12,  4.92869756E+03,
                       2.83181844E+01]),
                NASA([1072.04, 5000.00],
                     [ 1.28661022E+01,  3.85785821E-02, -1.55015039E-05,
                       2.86936711E-09, -2.00452296E-13,  9.66716719E+02,
                      -3.74012815E+01])))

species(name=u'C5H8c(510)',
        atoms='H:8 C:5',
        thermo=(NASA([100.00, 1004.86],
                     [ 1.98272725E+00,  3.49999801E-02,  6.98463280E-06,
                      -3.05024545E-08,  1.32243753E-11,  6.96521087E+03,
                       1.60818631E+01]),
                NASA([1004.86, 5000.00],
                     [ 1.01246935E+01,  2.42323006E-02, -9.24881959E-06,
                       1.70114768E-09, -1.20058754E-13,  4.23622146E+03,
                      -2.86748669E+01])))

species(name=u'C7H10(514)',
        atoms='H:10 C:7',
        thermo=(NASA([100.00, 960.58],
                     [ 5.40180502E-01,  6.14551441E-02, -1.12031214E-05,
                      -3.44222691E-08,  1.91302191E-11,  1.31395193E+04,
                       2.36489208E+01]),
                NASA([960.58, 5000.00],
                     [ 1.78943629E+01,  2.43012964E-02, -8.01424779E-06,
                       1.41741257E-09, -1.01048649E-13,  8.18561272E+03,
                      -6.78088805E+01])))

species(name=u'S(526)',
        atoms='H:16 C:11',
        thermo=(NASA([100.00, 1025.43],
                     [-2.16580536E+00,  1.17805383E-01, -7.17372303E-05,
                       5.89735427E-09,  7.03867135E-12,  1.54668050E+04,
                       4.19948975E+01]),
                NASA([1025.43, 5000.00],
                     [ 2.48394495E+01,  4.66278196E-02, -1.75945609E-05,
                       3.18837224E-09, -2.22176081E-13,  8.13218697E+03,
                      -9.77263631E+01])))

species(name=u'C7H12(532)',
        atoms='H:12 C:7',
        thermo=(NASA([100.00, 1131.99],
                     [ 5.84283936E-01,  6.47608544E-02, -2.67633364E-05,
                      -4.34739444E-09,  4.44183218E-12,  3.09569839E+03,
                       2.80653766E+01]),
                NASA([1131.99, 5000.00],
                     [ 1.29982883E+01,  3.85892174E-02, -1.55301360E-05,
                       2.84554534E-09, -1.96328852E-13, -8.48500999E+02,
                      -3.83715822E+01])))

species(name=u'C6H10(538)',
        atoms='H:10 C:6',
        thermo=(NASA([100.00, 1020.64],
                     [ 9.97407792E-01,  5.59779371E-02, -2.05888747E-05,
                      -1.17171796E-08,  8.13407747E-12,  2.84334004E+03,
                       1.95660676E+01]),
                NASA([1020.64, 5000.00],
                     [ 1.33829093E+01,  2.83659778E-02, -1.07662265E-05,
                       1.95747034E-09, -1.36587777E-13, -7.74928230E+02,
                      -4.57798620E+01])))

species(name=u'C5H8g(629)',
        atoms='H:8 C:5',
        thermo=(NASA([100.00, 1049.25],
                     [ 2.01062125E+00,  3.15407221E-02,  2.07789363E-05,
                      -4.44088837E-08,  1.72419051E-11,  7.01383968E+03,
                       1.65768357E+01]),
                NASA([1049.25, 5000.00],
                     [ 1.14809952E+01,  2.45641648E-02, -1.08867246E-05,
                       2.16706993E-09, -1.59145754E-13,  3.42314851E+03,
                      -3.72078949E+01])))

species(name=u'C7H10(633)',
        atoms='H:10 C:7',
        thermo=(NASA([100.00, 964.44],
                     [ 7.07350758E-01,  5.73834397E-02, -2.46785783E-06,
                      -4.14154826E-08,  2.10709980E-11,  1.33220545E+04,
                       2.42542165E+01]),
                NASA([964.44, 5000.00],
                     [ 1.71633412E+01,  2.51948716E-02, -8.49297585E-06,
                       1.52028393E-09, -1.08850341E-13,  8.47073302E+03,
                      -6.32355874E+01])))

species(name=u'C7H12(651)',
        atoms='H:12 C:7',
        thermo=(NASA([100.00, 1118.34],
                     [ 7.68969349E-01,  6.04855803E-02, -1.73309756E-05,
                      -1.22228014E-08,  6.75023122E-12,  3.45359683E+03,
                       2.84516575E+01]),
                NASA([1118.34, 5000.00],
                     [ 1.21604282E+01,  3.96569039E-02, -1.61062489E-05,
                       2.97091016E-09, -2.05964896E-13, -3.39703091E+02,
                      -3.33476920E+01])))

species(name=u'C9H14(655)',
        atoms='H:14 C:9',
        thermo=(NASA([100.00, 1061.02],
                     [-7.05940611E-01,  8.92475095E-02, -4.49532987E-05,
                      -2.53072212E-09,  6.58766455E-12,  9.54857170E+03,
                       3.51713742E+01]),
                NASA([1061.02, 5000.00],
                     [ 1.84447966E+01,  4.32247832E-02, -1.68934138E-05,
                       3.08903877E-09, -2.14803321E-13,  4.01137667E+03,
                      -6.52971627E+01])))

species(name=u'C6H10(661)',
        atoms='H:10 C:6',
        thermo=(NASA([100.00, 1057.19],
                     [ 1.32003300E+00,  4.84545275E-02, -5.79634083E-06,
                      -2.18047896E-08,  1.02540635E-11,  2.75327182E+03,
                       2.13746488E+01]),
                NASA([1057.19, 5000.00],
                     [ 1.18393549E+01,  3.09141209E-02, -1.24938141E-05,
                       2.33616867E-09, -1.64723007E-13, -7.14889916E+02,
                      -3.58434501E+01])))

species(name=u'CH4(665)',
        atoms='H:4 C:1',
        thermo=(NASA([100.00, 1084.15],
                     [ 4.20540072E+00, -5.35540640E-03,  2.51117636E-05,
                      -2.13755910E-08,  5.97496145E-12, -1.01619427E+04,
                      -9.21226951E-01]),
                NASA([1084.15, 5000.00],
                     [ 9.08349401E-01,  1.14539479E-02, -4.57166053E-06,
                       8.29173612E-10, -5.66300105E-14, -9.72001110E+03,
                       1.39926204E+01])))

species(name=u'C7H10(669)',
        atoms='H:10 C:7',
        thermo=(NASA([100.00, 960.58],
                     [ 5.40180502E-01,  6.14551441E-02, -1.12031214E-05,
                      -3.44222691E-08,  1.91302191E-11,  1.31395193E+04,
                       2.36489208E+01]),
                NASA([960.58, 5000.00],
                     [ 1.78943629E+01,  2.43012964E-02, -8.01424779E-06,
                       1.41741257E-09, -1.01048649E-13,  8.18561272E+03,
                      -6.78088805E+01])))

species(name=u'S(684)',
        atoms='H:16 C:11',
        thermo=(NASA([100.00, 987.83],
                     [-1.96241344E+00,  1.09892141E-01, -4.40085912E-05,
                      -2.66580776E-08,  1.95417859E-11,  1.63411908E+04,
                       4.25061291E+01]),
                NASA([987.83, 5000.00],
                     [ 2.59586744E+01,  4.41310616E-02, -1.59747161E-05,
                       2.89438914E-09, -2.04652391E-13,  8.51718823E+03,
                      -1.03535984E+02])))

species(name=u'S(687)',
        atoms='H:16 C:11',
        thermo=(NASA([100.00, 1026.62],
                     [-1.99466954E+00,  1.13682086E-01, -6.27972985E-05,
                      -1.39938089E-09,  9.12715742E-12,  1.58252994E+04,
                       4.24302763E+01]),
                NASA([1026.62, 5000.00],
                     [ 2.41122868E+01,  4.75164442E-02, -1.80710897E-05,
                       3.29083620E-09, -2.29950918E-13,  8.59129106E+03,
                      -9.33317843E+01])))

species(name=u'S(688)',
        atoms='H:16 C:11',
        thermo=(NASA([100.00, 1025.43],
                     [-2.16578907E+00,  1.17805190E-01, -7.17365576E-05,
                       5.89648972E-09,  7.03903434E-12,  1.56429309E+04,
                       4.18388413E+01]),
                NASA([1025.43, 5000.00],
                     [ 2.48393754E+01,  4.66279443E-02, -1.75946322E-05,
                       3.18838899E-09, -2.22177464E-13,  8.30834524E+03,
                      -9.78819427E+01])))

species(name=u'S(689)',
        atoms='H:16 C:11',
        thermo=(NASA([100.00, 1025.43],
                     [-2.16578907E+00,  1.17805190E-01, -7.17365576E-05,
                       5.89648972E-09,  7.03903434E-12,  1.56429309E+04,
                       4.18388413E+01]),
                NASA([1025.43, 5000.00],
                     [ 2.48393754E+01,  4.66279443E-02, -1.75946322E-05,
                       3.18838899E-09, -2.22177464E-13,  8.30834524E+03,
                      -9.78819427E+01])))

species(name=u'S(690)',
        atoms='H:16 C:11',
        thermo=(NASA([100.00, 1025.43],
                     [-2.16578907E+00,  1.17805190E-01, -7.17365576E-05,
                       5.89648972E-09,  7.03903434E-12,  1.56429309E+04,
                       4.18388413E+01]),
                NASA([1025.43, 5000.00],
                     [ 2.48393754E+01,  4.66279443E-02, -1.75946322E-05,
                       3.18838899E-09, -2.22177464E-13,  8.30834524E+03,
                      -9.78819427E+01])))

species(name=u'C7H12(695)',
        atoms='H:12 C:7',
        thermo=(NASA([100.00, 1021.05],
                     [ 8.05773151E-01,  5.67088952E-02,  1.07994571E-06,
                      -3.64852218E-08,  1.65094880E-11,  3.96922059E+03,
                       2.85069282E+01]),
                NASA([1021.05, 5000.00],
                     [ 1.35813920E+01,  3.69459464E-02, -1.43791198E-05,
                       2.65834816E-09, -1.87418836E-13, -2.18414563E+02,
                      -4.11250701E+01])))

species(name=u'C4H8(696)',
        atoms='H:8 C:4',
        thermo=(NASA([100.00, 1061.32],
                     [ 2.52506524E+00,  2.64750742E-02,  7.08428866E-06,
                      -2.07740178E-08,  8.00465619E-12, -4.02607206E+03,
                       1.28856643E+01]),
                NASA([1061.32, 5000.00],
                     [ 6.48663440E+00,  2.49945454E-02, -9.83291861E-06,
                       1.79345326E-09, -1.24009900E-13, -5.62448308E+03,
                      -1.00311177E+01])))

species(name=u'C2H6(698)',
        atoms='H:6 C:2',
        thermo=(NASA([100.00, 1012.42],
                     [ 3.72239308E+00,  1.65083640E-03,  3.44175601E-05,
                      -3.76858321E-08,  1.24450696E-11, -1.15575902E+04,
                       4.68247939E+00]),
                NASA([1012.42, 5000.00],
                     [ 2.82848184E+00,  1.73040581E-02, -6.73334315E-06,
                       1.23742041E-09, -8.65676548E-14, -1.19978077E+04,
                       5.93812118E+00])))

species(name=u'S(1016)',
        atoms='H:14 C:10',
        thermo=(NASA([100.00, 986.05],
                     [-1.44907146E+00,  1.01424649E-01, -4.84835626E-05,
                      -1.57995520E-08,  1.50678338E-11,  1.99508928E+04,
                       3.67659087E+01]),
                NASA([986.05, 5000.00],
                     [ 2.42858653E+01,  3.77393729E-02, -1.35337167E-05,
                       2.44097454E-09, -1.72313265E-13,  1.28965429E+04,
                      -9.70645225E+01])))

species(name=u'S(1025)',
        atoms='H:14 C:9',
        thermo=(NASA([100.00, 1063.14],
                     [-8.82226119E-01,  9.34310968E-02, -5.41009281E-05,
                       5.02881493E-09,  4.39065659E-12,  9.19029990E+03,
                       3.47544851E+01]),
                NASA([1063.14, 5000.00],
                     [ 1.91978470E+01,  4.22929913E-02, -1.63923405E-05,
                       2.98083708E-09, -2.06556317E-13,  3.54110238E+03,
                      -6.98380560E+01])))

species(name=u'S(1257)',
        atoms='H:12 C:8',
        thermo=(NASA([100.00, 992.61],
                     [-3.23140815E-01,  8.16872531E-02, -4.25443623E-05,
                      -6.36014724E-09,  9.32037842E-12,  8.64812188E+03,
                       2.66551826E+01]),
                NASA([992.61, 5000.00],
                     [ 1.89662827E+01,  3.26466570E-02, -1.17939295E-05,
                       2.10782660E-09, -1.46867410E-13,  3.40530784E+03,
                      -7.33819013E+01])))

species(name=u'S(1566)',
        atoms='H:14 C:9',
        thermo=(NASA([100.00, 1033.76],
                     [-5.65305311E-01,  8.47307301E-02, -3.08964829E-05,
                      -1.77748301E-08,  1.20857633E-11,  1.12058927E+04,
                       3.63092230E+01]),
                NASA([1033.76, 5000.00],
                     [ 1.85554025E+01,  4.28308397E-02, -1.66555408E-05,
                       3.06542744E-09, -2.15114725E-13,  5.53825101E+03,
                      -6.48640708E+01])))

species(name=u'S(1860)',
        atoms='H:12 C:8',
        thermo=(NASA([100.00, 996.08],