units(length='cm', time='s', quantity='mol', act_energy='kcal/mol')

ideal_gas(name='gas',
          elements="H D T C Ci O Oi N Ne Ar He Si S Cl X",
          species="""n-heptane   Ar          He          Ne
                     N2          C2H4(2)     C4H8-1(3)   C4H8-2(4)
                     C4H6(7)     C6H8(9)     C3H6(24)    H2(47)
                     C8H10(78)   C8H12(184)  S(350)      S(363)
                     C8H12(374)  C5H8c(451)  C6H10(488)  C8H12(490)
                     C7H12(645)  C7H10(658)  S(679)      C7H12(690)
                     C6H10(696)  C6H10(697)  C5H8g(726)  CH4(988)
                     C4H8(1011)  C2H6(1016)  S(1254)     S(1321)
                     S(1405)     S(1720)     S(2037)     S(2088)
                     S(2185)     S(2209)     S(3652)     S(5284)
                     S(5451)""",
          reactions='gas-*',
          transport='Mix',
          initial_state=state(temperature=300.0, pressure=OneAtm))

ideal_interface(name='surface1',
                elements="H D T C Ci O Oi N Ne Ar He Si S Cl X",
                species="""X(1)        HX(5)       C2H3X(27)   allylX(28)
                          CH3X(29)    C2H5X(30)   C4H7X(32)   C4H7X(33)
                          C3H5X(35)   C4H5X(56)   C4H5X(57)   C6H9X(65)
                          C6H9X(66)   C6H9X(80)   C8H11X(85)  C8H11X(86)
                          C6H7X(94)   C6H7X(95)   C6H7X(96)   SX(145)
                          SX(149)     SX(150)     C6H7X(159)  C5H7X(177)
                          SX(202)     C6H9X(203)  SX(204)     SX(205)
                          SX(206)     SX(207)     SX(208)     SX(287)
                          SX(313)     C3H5X(387)  C4H7X(388)  SX(389)
                          C6H9X(390)  SX(392)     SX(393)     SX(394)
                          C5H7X(446)  C7H9X(474)  C6H9X(524)  C6H9X(557)
                          C5H9X(610)  SX(615)     SX(616)     SX(619)
                          SX(620)     C5H9X(652)  SX(656)     SX(657)
                          C5H7X(865)  C5H7X(866)  C5H7X(867)  SX(883)
                          SX(955)     SX(957)     SX(1029)    SX(1030)
                          SX(1031)    SX(1032)    SX(1033)    SX(1034)
                          SX(1035)    SX(1036)    SX(1087)    SX(1088)
                          SX(1136)    SX(1137)    SX(1138)    SX(1139)
                          SX(1308)    SX(1309)    SX(1312)    SX(1352)
                          SX(1370)    SX(1382)    SX(1397)    SX(1497)
                          SX(1498)    SX(1510)    SX(1640)    SX(1652)
                          SX(1672)    SX(1704)    SX(1706)    SX(1710)
                          SX(1711)    SX(1844)    SX(1845)    SX(1846)
                          SX(2022)    SX(2026)    SX(2027)    SX(2137)
                          SX(2138)    SX(2139)    SX(2140)    SX(2141)
                          SX(2142)    SX(2143)    SX(2309)    SX(2468)
                          SX(2526)    SX(2527)    SX(2528)    SX(2529)
                          SX(2530)    SX(2922)    SX(2924)    SX(2927)
                          SX(2931)    SX(2932)    SX(3233)    SX(3234)
                          SX(3236)    SX(3237)    SX(3238)    SX(3239)
                          SX(3240)    SX(3241)    SX(3265)    SX(3289)
                          SX(3361)    SX(3362)    SX(3363)    SX(3364)
                          SX(3365)    SX(3366)    SX(3367)    SX(3368)
                          SX(3471)    SX(3608)    SX(3613)    SX(3614)
                          SX(3617)    SX(3683)    SX(3684)    SX(3824)
                          SX(4033)    SX(4034)    SX(4035)    SX(4175)
                          SX(4206)    SX(4242)    SX(4280)    SX(4281)
                          SX(4419)    SX(4420)    SX(4422)    SX(4480)
                          SX(4510)    SX(4552)    SX(4785)    SX(4828)
                          SX(5075)    SX(5273)    SX(5365)    SX(5366)
                          SX(5423)    SX(5425)    SX(5428)    SX(5432)
                          SX(5433)""",
                site_density=2.72e-09,
                phases="gas",
          reactions='surface1-*',
                initial_state=state(temperature=300.0, pressure=OneAtm))

#-------------------------------------------------------------------------------
# Element data
#-------------------------------------------------------------------------------

element(symbol=u'X', atomic_mass=195.083)
element(symbol=u'Ci', atomic_mass=13.003)
element(symbol=u'D', atomic_mass=2.014)
element(symbol=u'Oi', atomic_mass=18.0)
element(symbol=u'T', atomic_mass=3.016)
#-------------------------------------------------------------------------------
# Species data
#-------------------------------------------------------------------------------

species(name=u'n-heptane',
        atoms='H:16 C:7',
        thermo=(NASA([100.00, 1262.73],
                     [-2.91681405E-03,  7.69373649E-02, -3.48025563E-05,
                       1.86095180E-09,  2.01573617E-12, -2.57829342E+04,
                       3.00312148E+01]),
                NASA([1262.73, 5000.00],
                     [ 1.38377915E+01,  4.85945016E-02, -1.95474548E-05,
                       3.52837178E-09, -2.39064676E-13, -3.05141556E+04,
                      -4.48642836E+01])),
        transport=gas_transport(geom='nonlinear',
                                diam=6.366,
                                well_depth=402.997))

species(name=u'Ar',
        atoms='Ar:1',
        thermo=(NASA([200.00, 1000.00],
                     [ 2.50000000E+00,  0.00000000E+00,  0.00000000E+00,
                       0.00000000E+00,  0.00000000E+00, -7.45375000E+02,
                       4.37967000E+00]),
                NASA([1000.00, 6000.00],
                     [ 2.50000000E+00,  0.00000000E+00,  0.00000000E+00,
                       0.00000000E+00,  0.00000000E+00, -7.45375000E+02,
                       4.37967000E+00])),
        transport=gas_transport(geom='atom',
                                diam=3.33,
                                well_depth=136.5))

species(name=u'He',
        atoms='He:1',
        thermo=(NASA([200.00, 1000.00],
                     [ 2.50000000E+00,  0.00000000E+00,  0.00000000E+00,
                       0.00000000E+00,  0.00000000E+00, -7.45375000E+02,
                       9.28724000E-01]),
                NASA([1000.00, 6000.00],
                     [ 2.50000000E+00,  0.00000000E+00,  0.00000000E+00,
                       0.00000000E+00,  0.00000000E+00, -7.45375000E+02,
                       9.28724000E-01])),
        transport=gas_transport(geom='atom',
                                diam=2.576,
                                well_depth=10.2))

species(name=u'Ne',
        atoms='Ne:1',
        thermo=(NASA([200.00, 1000.00],
                     [ 2.50000000E+00,  0.00000000E+00,  0.00000000E+00,
                       0.00000000E+00,  0.00000000E+00, -7.45375000E+02,
                       3.35532000E+00]),
                NASA([1000.00, 6000.00],
                     [ 2.50000000E+00,  0.00000000E+00,  0.00000000E+00,
                       0.00000000E+00,  0.00000000E+00, -7.45375000E+02,
                       3.35532000E+00])),
        transport=gas_transport(geom='atom',
                                diam=3.758,
                                well_depth=148.6))

species(name=u'N2',
        atoms='N:2',
        thermo=(NASA([200.00, 1000.00],
                     [ 3.53101000E+00, -1.23661000E-04, -5.02999000E-07,
                       2.43531000E-09, -1.40881000E-12, -1.04698000E+03,
                       2.96747000E+00]),
                NASA([1000.00, 6000.00],
                     [ 2.95258000E+00,  1.39690000E-03, -4.92632000E-07,
                       7.86010000E-11, -4.60755000E-15, -9.23949000E+02,
                       5.87189000E+00])),
        transport=gas_transport(geom='linear',
                                diam=3.621,
                                well_depth=97.53,
                                polar=1.76,
                                rot_relax=4.0))

species(name=u'C2H4(2)',
        atoms='H:4 C:2',
        thermo=(NASA([100.00, 979.36],
                     [ 3.97471606E+00, -4.75844285E-03,  4.16783770E-05,
                      -4.51392516E-08,  1.54224761E-11,  4.91540746E+03,
                       3.62430844E+00]),
                NASA([979.36, 5000.00],
                     [ 3.55660610E+00,  1.10627464E-02, -4.17019079E-06,
                       7.85586770E-10, -5.70060829E-14,  4.32046489E+03,
                       2.17719479E+00])),
        transport=gas_transport(geom='nonlinear',
                                diam=3.971,
                                well_depth=280.8,
                                rot_relax=1.5))

species(name=u'C4H8-1(3)',
        atoms='H:8 C:4',
        thermo=(NASA([100.00, 1007.28],
                     [ 2.58772906E+00,  2.32777969E-02,  1.93412349E-05,
                      -3.55496333E-08,  1.36906009E-11, -1.91872926E+03,
                       1.45750618E+01]),
                NASA([1007.28, 5000.00],
                     [ 7.20517168E+00,  2.36361568E-02, -9.03150028E-06,
                       1.65392666E-09, -1.16019260E-13, -3.79733937E+03,
                      -1.24426257E+01])),
        transport=gas_transport(geom='nonlinear',
                                diam=5.176,
                                well_depth=357.002,
                                rot_relax=1.0))

species(name=u'C4H8-2(4)',
        atoms='H:8 C:4',
        thermo=(NASA([100.00, 1157.79],
                     [ 2.51998327E+00,  2.76812799E-02,  9.43783469E-07,
                      -1.25009101E-08,  4.67144666E-12, -3.34374767E+03,
                       1.30195623E+01]),
                NASA([1157.79, 5000.00],
                     [ 6.04225708E+00,  2.60072350E-02, -1.04843374E-05,
                       1.90880922E-09, -1.30600505E-13, -4.86276511E+03,
                      -7.52715109E+00])),
        transport=gas_transport(geom='nonlinear',
                                diam=5.289,
                                well_depth=359.053))

species(name=u'C4H6(7)',
        atoms='H:6 C:4',
        thermo=(NASA([100.00, 946.05],
                     [ 2.80599310E+00,  1.02584471E-02,  6.17260255E-05,
                      -9.01642687E-08,  3.59116961E-11,  1.16584972E+04,
                       1.20621434E+01]),
                NASA([946.05, 5000.00],
                     [ 1.24693720E+01,  1.00553901E-02, -2.41206872E-06,
                       4.57077303E-10, -3.93160571E-14,  8.01077795E+03,
                      -4.36374720E+01])),
        transport=gas_transport(geom='nonlinear',
                                diam=5.18,
                                well_depth=357.002,
                                rot_relax=1.0))

species(name=u'C6H8(9)',
        atoms='H:8 C:6',
        thermo=(NASA([100.00, 941.22],
                     [ 1.38427980E+00,  4.14411503E-02,  1.94287417E-05,
                      -6.16688700E-08,  2.86503633E-11,  1.76317461E+04,
                       1.93257509E+01]),
                NASA([941.22, 5000.00],
                     [ 1.69619680E+01,  1.57221707E-02, -4.10118367E-06,
                       6.95736344E-10, -5.26521484E-14,  1.29061672E+04,
                      -6.44097553E+01])),
        transport=gas_transport(geom='nonlinear',
                                diam=5.514,
                                well_depth=396.052))

species(name=u'C3H6(24)',
        atoms='H:6 C:3',
        thermo=(NASA([100.00, 983.75],
                     [ 3.31912102E+00,  8.17958674E-03,  3.34736123E-05,
                      -4.36193684E-08,  1.58213364E-11,  7.49325328E+02,
                       9.54025058E+00]),
                NASA([983.75, 5000.00],
                     [ 5.36755173E+00,  1.70743019E-02, -6.35107626E-06,
                       1.16619529E-09, -8.27620279E-14, -4.87138326E+02,
                      -4.54467529E+00])),
        transport=gas_transport(geom='nonlinear',
                                diam=4.982,
                                well_depth=266.801,
                                rot_relax=1.0))

species(name=u'H2(47)',
        atoms='H:2',
        thermo=(NASA([100.00, 1959.08],
                     [ 3.43536412E+00,  2.12710353E-04, -2.78625043E-07,
                       3.40267167E-10, -7.76031998E-14, -1.03135984E+03,
                      -3.90841732E+00]),
                NASA([1959.08, 5000.00],
                     [ 2.78816583E+00,  5.87640942E-04,  1.59010417E-07,
                      -5.52739026E-11,  4.34310984E-15, -5.96144270E+02,
                       1.12732655E-01])),
        transport=gas_transport(geom='linear',
                                diam=2.833,
                                well_depth=59.7))

species(name=u'C8H10(78)',
        atoms='H:10 C:8',
        thermo=(NASA([100.00, 941.38],
                     [ 8.64508879E-02,  6.59507123E-02,  1.49007776E-06,
                      -6.06862449E-08,  3.13845046E-11,  2.39088929E+04,
                       2.66192822E+01]),
                NASA([941.38, 5000.00],
                     [ 2.28417755E+01,  1.96704891E-02, -5.08803462E-06,
                       8.53682038E-10, -6.42382395E-14,  1.73909786E+04,
                      -9.36509497E+01])),
        transport=gas_transport(geom='nonlinear',
                                diam=6.008,
                                well_depth=441.329))

species(name=u'C8H12(184)',
        atoms='H:12 C:8',
        thermo=(NASA([100.00, 1002.94],
                     [ 1.69489980E-02,  7.28189377E-02, -2.16585698E-05,
                      -2.40807783E-08,  1.44597041E-11,  1.38562447E+04,
                       3.07679077E+01]),
                NASA([1002.94, 5000.00],
                     [ 1.77276883E+01,  3.45993801E-02, -1.29781828E-05,
                       2.37500136E-09, -1.67643536E-13,  8.67334638E+03,
                      -6.28559377E+01])),
        transport=gas_transport(geom='nonlinear',
                                diam=6.098,
                                well_depth=423.433))

species(name=u'S(350)',
        atoms='H:14 C:10',
        thermo=(NASA([100.00, 988.70],
                     [-1.28102885E+00,  9.73401935E-02, -3.96908570E-05,
                      -2.28883979E-08,  1.70599250E-11,  2.01333918E+04,
                       3.80613736E+01]),
                NASA([988.70, 5000.00],
                     [ 2.35618068E+01,  3.86218834E-02, -1.40063814E-05,
                       2.54246809E-09, -1.80004061E-13,  1.31784885E+04,
                      -9.18377566E+01])),
        transport=gas_transport(geom='nonlinear',
                                diam=6.588,
                                well_depth=467.343))

species(name=u'S(363)',
        atoms='H:14 C:10',
        thermo=(NASA([100.00, 988.70],
                     [-1.28102885E+00,  9.73401935E-02, -3.96908570E-05,
                      -2.28883979E-08,  1.70599250E-11,  2.01333918E+04,
                       3.80613736E+01]),
                NASA([988.70, 5000.00],
                     [ 2.35618068E+01,  3.86218834E-02, -1.40063814E-05,
                       2.54246809E-09, -1.80004061E-13,  1.31784885E+04,
                      -9.18377566E+01])),
        transport=gas_transport(geom='nonlinear',
                                diam=6.588,
                                well_depth=467.343))

species(name=u'C8H12(374)',
        atoms='H:12 C:8',
        thermo=(NASA([100.00, 1016.52],
                     [-1.10429280E-01,  7.70814645E-02, -3.47833140E-05,
                      -1.00302869E-08,  9.42640217E-12,  1.21750142E+04,
                       2.97645889E+01]),
                NASA([1016.52, 5000.00],
                     [ 1.75623558E+01,  3.50022757E-02, -1.32158186E-05,
                       2.40320183E-09, -1.68059077E-13,  7.16317806E+03,
                      -6.27651255E+01])),
        transport=gas_transport(geom='nonlinear',
                                diam=6.124,
                                well_depth=426.137))

species(name=u'C5H8c(451)',
        atoms='H:8 C:5',
        thermo=(NASA([100.00, 1004.86],
                     [ 1.98273955E+00,  3.49998332E-02,  6.98515281E-06,
                      -3.05031334E-08,  1.32246652E-11,  6.96521034E+03,
                       1.60818191E+01]),
                NASA([1004.86, 5000.00],
                     [ 1.01246420E+01,  2.42323877E-02, -9.24886971E-06,
                       1.70115950E-09, -1.20059732E-13,  4.23624320E+03,
                      -2.86745770E+01])),
        transport=gas_transport(geom='nonlinear',
                                diam=5.354,
                                well_depth=369.973))

species(name=u'C6H10(488)',
        atoms='H:10 C:6',
        thermo=(NASA([100.00, 1036.89],
                     [ 1.50874221E+00,  4.27939676E-02,  1.00407781E-05,
                      -3.76644958E-08,  1.56320088E-11,  7.74480595E+03,
                       2.33493905E+01]),
                NASA([1036.89, 5000.00],
                     [ 1.16601041E+01,  3.10397815E-02, -1.26024374E-05,
                       2.38495409E-09, -1.70150727E-13,  4.16633351E+03,
                      -3.30972272E+01])),
        transport=gas_transport(geom='nonlinear',
                                diam=5.648,
                                well_depth=385.401))

species(name=u'C8H12(490)',
        atoms='H:12 C:8',
        thermo=(NASA([100.00, 1005.34],
                     [ 1.86706594E-01,  6.87128585E-02, -1.27834364E-05,
                      -3.12867866E-08,  1.65065107E-11,  1.40386710E+04,
                       3.13641644E+01]),
                NASA([1005.34, 5000.00],
                     [ 1.70020327E+01,  3.54850644E-02, -1.34528637E-05,
                       2.47700296E-09, -1.75378433E-13,  8.95581482E+03,
                      -5.83136097E+01])),
        transport=gas_transport(geom='nonlinear',
                                diam=6.146,
                                well_depth=430.747))

species(name=u'C7H12(645)',
        atoms='H:12 C:7',
        thermo=(NASA([100.00, 1072.04],
                     [ 7.34369533E-01,  6.01626595E-02, -1.25662011E-05,
                      -1.95620583E-08,  9.83589598E-12,  4.92869796E+03,
                       2.83182178E+01]),
                NASA([1072.04, 5000.00],
                     [ 1.28661532E+01,  3.85784978E-02, -1.55014561E-05,
                       2.86935600E-09, -2.00451385E-13,  9.66694499E+02,
                      -3.74015701E+01])),
        transport=gas_transport(geom='nonlinear',
                                diam=5.964,
                                well_depth=403.169))

species(name=u'C7H10(658)',
        atoms='H:10 C:7',
        thermo=(NASA([100.00, 960.58],
                     [ 5.40181259E-01,  6.14551349E-02, -1.12030877E-05,
                      -3.44223146E-08,  1.91302393E-11,  1.31395193E+04,
                       2.36489181E+01]),
                NASA([960.58, 5000.00],
                     [ 1.78943603E+01,  2.43013009E-02, -8.01425042E-06,
                       1.41741320E-09, -1.01048701E-13,  8.18561381E+03,
                      -6.78088657E+01])),
        transport=gas_transport(geom='nonlinear',
                                diam=5.856,
                                well_depth=416.37))

species(name=u'S(679)',
        atoms='H:16 C:11',
        thermo=(NASA([100.00, 1025.43],
                     [-2.16580454E+00,  1.17805373E-01, -7.17371965E-05,
                       5.89731094E-09,  7.03868955E-12,  1.56429316E+04,
                       4.18388967E+01]),
                NASA([1025.43, 5000.00],
                     [ 2.48394458E+01,  4.66278259E-02, -1.75945644E-05,
                       3.18837308E-09, -2.22176150E-13,  8.30831519E+03,
                      -9.78823400E+01])),
        transport=gas_transport(geom='nonlinear',
                                diam=6.924,
                                well_depth=486.373))

species(name=u'C7H12(690)',
        atoms='H:12 C:7',
        thermo=(NASA([100.00, 1131.99],
                     [ 5.84283501E-01,  6.47608593E-02, -2.67633524E-05,
                      -4.34737531E-09,  4.44182478E-12,  3.09569841E+03,
                       2.80653782E+01]),
                NASA([1131.99, 5000.00],
                     [ 1.29982914E+01,  3.85892124E-02, -1.55301333E-05,
                       2.84554471E-09, -1.96328801E-13, -8.48502352E+02,
                      -3.83715994E+01])),
        transport=gas_transport(geom='nonlinear',
                                diam=5.989,
                                well_depth=405.778))

species(name=u'C6H10(696)',
        atoms='H:10 C:6',
        thermo=(NASA([100.00, 1020.63],
                     [ 9.97427413E-01,  5.59777045E-02, -2.05880600E-05,
                      -1.17182304E-08,  8.13452041E-12,  6.30749855E+03,
                       2.38941836E+01]),
                NASA([1020.63, 5000.00],
                     [ 1.33828218E+01,  2.83661253E-02, -1.07663110E-05,
                       1.95749020E-09, -1.36589418E-13,  2.68926840E+03,
                      -4.14511818E+01])),
        transport=gas_transport(geom='nonlinear',
                                diam=5.673,
                                well_depth=388.08))

species(name=u'C6H10(697)',
        atoms='H:10 C:6',
        thermo=(NASA([100.00, 1020.63],
                     [ 9.97427413E-01,  5.59777045E-02, -2.05880600E-05,
                      -1.17182304E-08,  8.13452041E-12,  2.84333919E+03,
                       1.95659973E+01]),
                NASA([1020.63, 5000.00],
                     [ 1.33828218E+01,  2.83661253E-02, -1.07663110E-05,
                       1.95749020E-09, -1.36589418E-13, -7.74890955E+02,
                      -4.57793681E+01])),
        transport=gas_transport(geom='nonlinear',
                                diam=5.698,
                                well_depth=390.841))

species(name=u'C5H8g(726)',
        atoms='H:8 C:5',
        thermo=(NASA([100.00, 1049.25],
                     [ 2.01062155E+00,  3.15407187E-02,  2.07789480E-05,
                      -4.44088985E-08,  1.72419112E-11,  7.01383967E+03,
                       1.65768346E+01]),
                NASA([1049.25, 5000.00],
                     [ 1.14809937E+01,  2.45641673E-02, -1.08867259E-05,
                       2.16707025E-09, -1.59145781E-13,  3.42314914E+03,
                      -3.72078866E+01])),
        transport=gas_transport(geom='nonlinear',
                                diam=5.404,
                                well_depth=377.736))

species(name=u'CH4(988)',
        atoms='H:4 C:1',
        thermo=(NASA([100.00, 1084.12],
                     [ 4.20541524E+00, -5.35557362E-03,  2.51123265E-05,
                      -2.13762843E-08,  5.97523937E-12, -1.01619433E+04,
                      -9.21279283E-01]),
                NASA([1084.12, 5000.00],
                     [ 9.08265721E-01,  1.14540858E-02, -4.57173828E-06,
                       8.29191671E-10, -5.66314895E-14, -9.71997444E+03,
                       1.39930944E+01])),
        transport=gas_transport(geom='nonlinear',
                                diam=3.746,
                                well_depth=141.4,
                                polar=2.6,
                                rot_relax=13.0))

species(name=u'C4H8(1011)',
        atoms='H:8 C:4',
        thermo=(NASA([100.00, 1061.33],
                     [ 2.52504770E+00,  2.64752782E-02,  7.08359238E-06,
                      -2.07731462E-08,  8.00430055E-12, -4.02607130E+03,
                       1.28857274E+01]),
                NASA([1061.33, 5000.00],
                     [ 6.48672669E+00,  2.49943921E-02, -9.83283171E-06,
                       1.79343299E-09, -1.24008235E-13, -5.62452310E+03,
                      -1.00316397E+01])),
        transport=gas_transport(geom='nonlinear',
                                diam=5.238,
                                well_depth=351.146))

species(name=u'C2H6(1016)',
        atoms='H:6 C:2',
        thermo=(NASA([100.00, 1012.42],
                     [ 3.72239291E+00,  1.65083841E-03,  3.44175530E-05,
                      -3.76858229E-08,  1.24450657E-11, -1.15575901E+04,
                       4.68247999E+00]),
                NASA([1012.42, 5000.00],
                     [ 2.82848257E+00,  1.73040568E-02, -6.73334245E-06,
                       1.23742024E-09, -8.65676410E-14, -1.19978080E+04,
                       5.93811707E+00])),
        transport=gas_transport(geom='nonlinear',
                                diam=4.302,
                                well_depth=252.3,
                                rot_relax=1.5))

species(name=u'S(1254)',
        atoms='H:14 C:10',
        thermo=(NASA([100.00, 996.17],
                     [-1.40484009E+00,  1.01563983E-01, -5.26982344E-05,
                      -8.95924912E-09,  1.20629221E-11,  1.84520053E+04,
                       3.70450641E+01]),
                NASA([996.17, 5000.00],
                     [ 2.33617794E+01,  3.90818563E-02, -1.42761516E-05,
                       2.57812553E-09, -1.81029820E-13,  1.16835351E+04,
                      -9.15504001E+01])),
        transport=gas_transport(geom='nonlinear',
                                diam=6.613,
                                well_depth=470.051))

species(name=u'S(1321)',
        atoms='H:18 C:12',
        thermo=(NASA([100.00, 1338.74],
                     [-2.66130003E+00,  1.37835040E-01, -1.11817012E-04,
                       4.80070405E-08, -8.44164694E-12,  1.50129767E+04,
                       4.57160614E+01]),
                NASA([1338.74, 5000.00],
                     [ 2.34869117E+01,  5.97072701E-02, -2.42783035E-05,
                       4.41448563E-09, -3.01058900E-13,  8.01184028E+03,
                      -8.80621521E+01])),
        transport=gas_transport(geom='nonlinear',
                                diam=7.197,
                                well_depth=495.902))

species(name=u'S(1405)',
        atoms='H:16 C:12',
        thermo=(NASA([100.00, 979.75],
                     [-2.57869009E+00,  1.21854019E-01, -5.76779173E-05,
                      -2.17861304E-08,  1.97140254E-11,  2.64105279E+04,
                       4.53539303E+01]),
                NASA([979.75, 5000.00],
                     [ 2.94124910E+01,  4.26177237E-02, -1.50198177E-05,
                       2.70655281E-09, -1.92090584E-13,  1.76761784E+04,
                      -1.20913775E+02])),
        transport=gas_transport(geom='nonlinear',
                                diam=7.071,
                                well_depth=509.918))

species(name=u'S(1720)',
        atoms='H:16 C:10',
        thermo=(NASA([100.00, 1423.43],
                     [-9.64998750E-01,  1.06621285E-01, -7.62914575E-05,
                       2.89181323E-08, -4.60674413E-12,  8.90797740E+03,
                       3.81904336E+01]),
                NASA([1423.43, 5000.00],
                     [ 1.67121827E+01,  5.69463096E-02, -2.39442437E-05,
                       4.40115288E-09, -3.00767956E-13,  3.87554017E+03,
                      -5.33329903E+01])),
        transport=gas_transport(geom='nonlinear',
                                diam=6.756,
                                well_depth=460.11))

species(name=u'S(2037)',
        atoms='H:14 C:9',
        thermo=(NASA([100.00, 1033.76],
                     [-5.65335332E-01,  8.47310838E-02, -3.08977113E-05,
                      -1.77732609E-08,  1.20851089E-11,  1.12058940E+04,
                       3.63093306E+01]),
                NASA([1033.76, 5000.00],
                     [ 1.85555439E+01,  4.28306026E-02, -1.66554054E-05,
                       3.06539570E-09, -2.15112108E-13,  5.53819046E+03,
                      -6.48648690E+01])),
        transport=gas_transport(geom='nonlinear',
                                diam=6.459,
                                well_depth=447.681))

species(name=u'S(2088)',
        atoms='H:16 C:11',
        thermo=(NASA([100.00, 1025.43],
                     [-2.16580454E+00,  1.17805373E-01, -7.17371965E-05,
                       5.89731094E-09,  7.03868955E-12,  1.56429316E+04,
                       4.18388967E+01]),
                NASA([1025.43, 5000.00],
                     [ 2.48394458E+01,  4.66278259E-02, -1.75945644E-05,
                       3.18837308E-09, -2.22176150E-13,  8.30831519E+03,
                      -9.78823400E+01])),
        transport=gas_transport(geom='nonlinear',
                                diam=6.924,
                                well_depth=486.373))

species(name=u'S(2185)',
        atoms='H:14 C:8',
        thermo=(NASA([100.00, 1280.64],
                     [-2.40718928E-01,  8.14813327E-02, -4.66009351E-05,
                       1.03785261E-08, -7.50594427E-14,  2.66338744E+02,
                       3.32829492E+01]),
                NASA([1280.64, 5000.00],
                     [ 1.60595843E+01,  4.35867655E-02, -1.74638285E-05,
                       3.14846671E-09, -2.13252517E-13, -4.97615747E+03,
                      -5.35566046E+01])),
        transport=gas_transport(geom='nonlinear',
                                diam=6.303,
                                well_depth=423.151))

species(name=u'S(2209)',
        atoms='H:16 C:10',
        thermo=(NASA([100.00, 1289.14],
                     [-8.93687957E-01,  1.08666914E-01, -8.19503125E-05,
                       3.37855656E-08, -5.94800249E-12,  7.06551798E+03,
                       3.64479621E+01]),
                NASA([1289.14, 5000.00],
                     [ 1.46119310E+01,  6.05555680E-02, -2.59697615E-05,
                       4.83584916E-09, -3.33869088E-13,  3.06772134E+03,
                      -4.22957851E+01])),
        transport=gas_transport(geom='nonlinear',
                                diam=6.781,
                                well_depth=462.723))
