units(length='cm', time='s', quantity='mol', act_energy='kcal/mol')

ideal_gas(name='gas',
          elements="H D T C Ci O Oi N Ne Ar He Si S Cl X",
          species="""n-heptane   Ar          He          Ne
                     N2          C2H4(2)     C4H8-1(3)   C4H8-2(4)
                     C4H6(7)     C6H8(9)     C3H6(24)    C8H10(78)
                     C6H8(122)   C2H6(135)   C6H10(137)  C6H10(140)
                     C4H10(141)  C5H8c(207)  C8H12(305)  C6H10(395)
                     C6H12(403)  C8H12(426)  C6H12(430)  C8H12(454)
                     C6H12(459)  C8H14(476)  C5H10(546)  C5H10(682)
                     CH4(765)    C8H14(946)  C8H12(976)  C8H14(984)
                     S(1015)     S(1031)     S(1032)     S(1057)
                     S(1137)     S(1259)     C5H8(1487)  S(1557)
                     S(1582)     S(1873)     S(1900)     S(2458)
                     S(2651)     S(2661)     S(2680)     S(2896)
                     S(3257)     S(3323)     S(3437)     S(3517)
                     S(3627)     S(3747)     S(4102)     S(4604)
                     S(4922)     S(5001)     S(5498)     S(5641)
                     S(5695)     S(5702)     S(5736)     S(6507)
                     S(6527)     S(7353)     S(9026)     S(9170)""",
          reactions='gas-*',
          transport='Mix',
          initial_state=state(temperature=300.0, pressure=OneAtm))

ideal_interface(name='surface1',
                elements="H D T C Ci O Oi N Ne Ar He Si S Cl X",
                species="""X(1)        HX(5)       C2H3X(27)   allylX(28)
                          CH3X(29)    C2H5X(30)   C4H7X(31)   C4H7X(32)
                          C4H7X(33)   C4H7X(34)   C3H5X(35)   C4H7X(36)
                          C4H7X(37)   C4H9X(44)   C4H9X(45)   C6H11X(51)
                          C6H11X(52)  C4H5X(56)   C4H5X(57)   C6H9X(65)
                          C6H9X(72)   C8H13X(74)  C8H13X(75)  C8H11X(76)
                          C6H7X(84)   C6H7X(85)   C6H7X(86)   C6H9X(97)
                          C8H11X(99)  C6H9X(118)  SX(132)     SX(133)
                          SX(134)     C6H7X(147)  C6H9X(162)  SX(228)
                          SX(229)     SX(230)     SX(345)     SX(347)
                          SX(391)     C4H7X(422)  SX(448)     C5H9X(548)
                          SX(549)     SX(554)     SX(593)     SX(647)
                          SX(685)     SX(686)     C5H9X(713)  C5H9X(714)
                          SX(715)     SX(716)     SX(721)     SX(780)
                          SX(781)     SX(782)     SX(784)     SX(785)
                          SX(786)     C6H9X(932)  SX(972)     SX(1068)
                          SX(1082)    SX(1083)    SX(1084)    SX(1295)
                          SX(1485)    SX(1622)    SX(1821)    SX(1898)
                          SX(1899)    SX(1920)    SX(1921)    SX(2037)
                          SX(2038)    SX(2154)    SX(2231)    SX(2232)
                          SX(2233)    SX(2234)    SX(2235)    SX(2247)
                          SX(2248)    SX(2544)    SX(2551)    SX(2552)
                          SX(2687)    SX(2721)    SX(3326)    SX(3621)
                          SX(4218)    SX(4912)    SX(5133)    SX(6013)
                          SX(7268)    SX(7292)    SX(8300)    SX(8452)
                          SX(8550)    SX(8779)""",
                site_density=2.72e-09,
                phases="gas",
          reactions='surface1-*',
                initial_state=state(temperature=300.0, pressure=OneAtm))

#-------------------------------------------------------------------------------
# Element data
#-------------------------------------------------------------------------------

element(symbol=u'X', atomic_mass=195.083)
element(symbol=u'Ci', atomic_mass=13.003)
element(symbol=u'D', atomic_mass=2.014)
element(symbol=u'Oi', atomic_mass=18.0)
element(symbol=u'T', atomic_mass=3.016)
#-------------------------------------------------------------------------------
# Species data
#-------------------------------------------------------------------------------

species(name=u'n-heptane',
        atoms='H:16 C:7',
        thermo=(NASA([100.00, 1262.73],
                     [-2.91681405E-03,  7.69373649E-02, -3.48025563E-05,
                       1.86095180E-09,  2.01573617E-12, -2.57829342E+04,
                       3.00312148E+01]),
                NASA([1262.73, 5000.00],
                     [ 1.38377915E+01,  4.85945016E-02, -1.95474548E-05,
                       3.52837178E-09, -2.39064676E-13, -3.05141556E+04,
                      -4.48642836E+01])),
        transport=gas_transport(geom='nonlinear',
                                diam=6.366,
                                well_depth=402.997))

species(name=u'Ar',
        atoms='Ar:1',
        thermo=(NASA([200.00, 1000.00],
                     [ 2.50000000E+00,  0.00000000E+00,  0.00000000E+00,
                       0.00000000E+00,  0.00000000E+00, -7.45375000E+02,
                       4.37967000E+00]),
                NASA([1000.00, 6000.00],
                     [ 2.50000000E+00,  0.00000000E+00,  0.00000000E+00,
                       0.00000000E+00,  0.00000000E+00, -7.45375000E+02,
                       4.37967000E+00])),
        transport=gas_transport(geom='atom',
                                diam=3.33,
                                well_depth=136.5))

species(name=u'He',
        atoms='He:1',
        thermo=(NASA([200.00, 1000.00],
                     [ 2.50000000E+00,  0.00000000E+00,  0.00000000E+00,
                       0.00000000E+00,  0.00000000E+00, -7.45375000E+02,
                       9.28724000E-01]),
                NASA([1000.00, 6000.00],
                     [ 2.50000000E+00,  0.00000000E+00,  0.00000000E+00,
                       0.00000000E+00,  0.00000000E+00, -7.45375000E+02,
                       9.28724000E-01])),
        transport=gas_transport(geom='atom',
                                diam=2.576,
                                well_depth=10.2))

species(name=u'Ne',
        atoms='Ne:1',
        thermo=(NASA([200.00, 1000.00],
                     [ 2.50000000E+00,  0.00000000E+00,  0.00000000E+00,
                       0.00000000E+00,  0.00000000E+00, -7.45375000E+02,
                       3.35532000E+00]),
                NASA([1000.00, 6000.00],
                     [ 2.50000000E+00,  0.00000000E+00,  0.00000000E+00,
                       0.00000000E+00,  0.00000000E+00, -7.45375000E+02,
                       3.35532000E+00])),
        transport=gas_transport(geom='atom',
                                diam=3.758,
                                well_depth=148.6))

species(name=u'N2',
        atoms='N:2',
        thermo=(NASA([200.00, 1000.00],
                     [ 3.53101000E+00, -1.23661000E-04, -5.02999000E-07,
                       2.43531000E-09, -1.40881000E-12, -1.04698000E+03,
                       2.96747000E+00]),
                NASA([1000.00, 6000.00],
                     [ 2.95258000E+00,  1.39690000E-03, -4.92632000E-07,
                       7.86010000E-11, -4.60755000E-15, -9.23949000E+02,
                       5.87189000E+00])),
        transport=gas_transport(geom='linear',
                                diam=3.621,
                                well_depth=97.53,
                                polar=1.76,
                                rot_relax=4.0))

species(name=u'C2H4(2)',
        atoms='H:4 C:2',
        thermo=(NASA([100.00, 979.36],
                     [ 3.97471606E+00, -4.75844285E-03,  4.16783770E-05,
                      -4.51392516E-08,  1.54224761E-11,  4.91540746E+03,
                       3.62430844E+00]),
                NASA([979.36, 5000.00],
                     [ 3.55660610E+00,  1.10627464E-02, -4.17019079E-06,
                       7.85586770E-10, -5.70060829E-14,  4.32046489E+03,
                       2.17719479E+00])),
        transport=gas_transport(geom='nonlinear',
                                diam=3.971,
                                well_depth=280.8,
                                rot_relax=1.5))

species(name=u'C4H8-1(3)',
        atoms='H:8 C:4',
        thermo=(NASA([100.00, 1007.28],
                     [ 2.58772906E+00,  2.32777969E-02,  1.93412349E-05,
                      -3.55496333E-08,  1.36906009E-11, -1.91872926E+03,
                       1.45750618E+01]),
                NASA([1007.28, 5000.00],
                     [ 7.20517168E+00,  2.36361568E-02, -9.03150028E-06,
                       1.65392666E-09, -1.16019260E-13, -3.79733937E+03,
                      -1.24426257E+01])),
        transport=gas_transport(geom='nonlinear',
                                diam=5.176,
                                well_depth=357.002,
                                rot_relax=1.0))

species(name=u'C4H8-2(4)',
        atoms='H:8 C:4',
        thermo=(NASA([100.00, 1157.79],
                     [ 2.51998327E+00,  2.76812799E-02,  9.43783469E-07,
                      -1.25009101E-08,  4.67144666E-12, -3.34374767E+03,
                       1.30195623E+01]),
                NASA([1157.79, 5000.00],
                     [ 6.04225708E+00,  2.60072350E-02, -1.04843374E-05,
                       1.90880922E-09, -1.30600505E-13, -4.86276511E+03,
                      -7.52715109E+00])),
        transport=gas_transport(geom='nonlinear',
                                diam=5.289,
                                well_depth=359.053))

species(name=u'C4H6(7)',
        atoms='H:6 C:4',
        thermo=(NASA([100.00, 946.05],
                     [ 2.80599310E+00,  1.02584471E-02,  6.17260255E-05,
                      -9.01642687E-08,  3.59116961E-11,  1.16584972E+04,
                       1.20621434E+01]),
                NASA([946.05, 5000.00],
                     [ 1.24693720E+01,  1.00553901E-02, -2.41206872E-06,
                       4.57077303E-10, -3.93160571E-14,  8.01077795E+03,
                      -4.36374720E+01])),
        transport=gas_transport(geom='nonlinear',
                                diam=5.18,
                                well_depth=357.002,
                                rot_relax=1.0))

species(name=u'C6H8(9)',
        atoms='H:8 C:6',
        thermo=(NASA([100.00, 941.22],
                     [ 1.38427980E+00,  4.14411503E-02,  1.94287417E-05,
                      -6.16688700E-08,  2.86503633E-11,  1.76317461E+04,
                       1.93257509E+01]),
                NASA([941.22, 5000.00],
                     [ 1.69619680E+01,  1.57221707E-02, -4.10118367E-06,
                       6.95736344E-10, -5.26521484E-14,  1.29061672E+04,
                      -6.44097553E+01])),
        transport=gas_transport(geom='nonlinear',
                                diam=5.514,
                                well_depth=396.052))

species(name=u'C3H6(24)',
        atoms='H:6 C:3',
        thermo=(NASA([100.00, 983.75],
                     [ 3.31912102E+00,  8.17958674E-03,  3.34736123E-05,
                      -4.36193684E-08,  1.58213364E-11,  7.49325328E+02,
                       9.54025058E+00]),
                NASA([983.75, 5000.00],
                     [ 5.36755173E+00,  1.70743019E-02, -6.35107626E-06,
                       1.16619529E-09, -8.27620279E-14, -4.87138326E+02,
                      -4.54467529E+00])),
        transport=gas_transport(geom='nonlinear',
                                diam=4.982,
                                well_depth=266.801,
                                rot_relax=1.0))

species(name=u'C8H10(78)',
        atoms='H:10 C:8',
        thermo=(NASA([100.00, 941.38],
                     [ 8.64508879E-02,  6.59507123E-02,  1.49007776E-06,
                      -6.06862449E-08,  3.13845046E-11,  2.39088929E+04,
                       2.66192822E+01]),
                NASA([941.38, 5000.00],
                     [ 2.28417755E+01,  1.96704891E-02, -5.08803462E-06,
                       8.53682038E-10, -6.42382395E-14,  1.73909786E+04,
                      -9.36509497E+01])),
        transport=gas_transport(geom='nonlinear',
                                diam=6.008,
                                well_depth=441.329))

species(name=u'C6H8(122)',
        atoms='H:8 C:6',
        thermo=(NASA([100.00, 972.94],
                     [ 1.82686070E+00,  3.47046353E-02,  2.41070171E-05,
                      -5.44847920E-08,  2.29388832E-11,  1.99100661E+04,
                       1.81393315E+01]),
                NASA([972.94, 5000.00],
                     [ 1.21686202E+01,  2.40472785E-02, -8.58151834E-06,
                       1.57034031E-09, -1.12795334E-13,  1.63897115E+04,
                      -3.92195169E+01])),
        transport=gas_transport(geom='nonlinear',
                                diam=5.466,
                                well_depth=388.421))

species(name=u'C2H6(135)',
        atoms='H:6 C:2',
        thermo=(NASA([100.00, 1012.42],
                     [ 3.72239291E+00,  1.65083841E-03,  3.44175530E-05,
                      -3.76858229E-08,  1.24450657E-11, -1.15575901E+04,
                       4.68247999E+00]),
                NASA([1012.42, 5000.00],
                     [ 2.82848257E+00,  1.73040568E-02, -6.73334245E-06,
                       1.23742024E-09, -8.65676410E-14, -1.19978080E+04,
                       5.93811707E+00])),
        transport=gas_transport(geom='nonlinear',
                                diam=4.302,
                                well_depth=252.3,
                                rot_relax=1.5))

species(name=u'C6H10(137)',
        atoms='H:10 C:6',
        thermo=(NASA([100.00, 1045.42],
                     [ 1.54967147E+00,  4.21895837E-02,  1.04895346E-05,
                      -3.69750926E-08,  1.50988524E-11,  6.71774665E+03,
                       2.39491991E+01]),
                NASA([1045.42, 5000.00],
                     [ 1.12124240E+01,  3.19133588E-02, -1.30691489E-05,
                       2.47430092E-09, -1.76160956E-13,  3.23863001E+03,
                      -3.00742335E+01])),
        transport=gas_transport(geom='nonlinear',
                                diam=5.721,
                                well_depth=395.658))

species(name=u'C6H10(140)',
        atoms='H:10 C:6',
        thermo=(NASA([100.00, 1020.63],
                     [ 9.97427413E-01,  5.59777045E-02, -2.05880600E-05,
                      -1.17182304E-08,  8.13452041E-12,  6.30749855E+03,
                       2.38941836E+01]),
                NASA([1020.63, 5000.00],
                     [ 1.33828218E+01,  2.83661253E-02, -1.07663110E-05,
                       1.95749020E-09, -1.36589418E-13,  2.68926840E+03,
                      -4.14511818E+01])),
        transport=gas_transport(geom='nonlinear',
                                diam=5.673,
                                well_depth=388.08))

species(name=u'C4H10(141)',
        atoms='H:10 C:4',
        thermo=(NASA([100.00, 1147.60],
                     [ 2.16918413E+00,  3.43904632E-02, -1.61564236E-06,
                      -1.30726562E-08,  5.17350451E-12, -1.72505136E+04,
                       1.46546701E+01]),
                NASA([1147.60, 5000.00],
                     [ 6.78903089E+00,  3.03598162E-02, -1.21262050E-05,
                       2.19945025E-09, -1.50289312E-13, -1.91057969E+04,
                      -1.17329103E+01])),
        transport=gas_transport(geom='nonlinear',
                                diam=5.415,
                                well_depth=348.415))

species(name=u'C5H8c(207)',
        atoms='H:8 C:5',
        thermo=(NASA([100.00, 1004.86],
                     [ 1.98273955E+00,  3.49998332E-02,  6.98515281E-06,
                      -3.05031334E-08,  1.32246652E-11,  6.96521034E+03,
                       1.60818191E+01]),
                NASA([1004.86, 5000.00],
                     [ 1.01246420E+01,  2.42323877E-02, -9.24886971E-06,
                       1.70115950E-09, -1.20059732E-13,  4.23624320E+03,
                      -2.86745770E+01])),
        transport=gas_transport(geom='nonlinear',
                                diam=5.354,
                                well_depth=369.973))

species(name=u'C8H12(305)',
        atoms='H:12 C:8',
        thermo=(NASA([100.00, 1002.94],
                     [ 1.69489980E-02,  7.28189377E-02, -2.16585698E-05,
                      -2.40807783E-08,  1.44597041E-11,  1.38562447E+04,
                       3.07679077E+01]),
                NASA([1002.94, 5000.00],
                     [ 1.77276883E+01,  3.45993801E-02, -1.29781828E-05,
                       2.37500136E-09, -1.67643536E-13,  8.67334638E+03,
                      -6.28559377E+01])),
        transport=gas_transport(geom='nonlinear',
                                diam=6.098,
                                well_depth=423.433))

species(name=u'C6H10(395)',
        atoms='H:10 C:6',
        thermo=(NASA([100.00, 1020.63],
                     [ 9.97427413E-01,  5.59777045E-02, -2.05880600E-05,
                      -1.17182304E-08,  8.13452041E-12,  6.84996860E+03,
                       2.32490569E+01]),
                NASA([1020.63, 5000.00],
                     [ 1.33828218E+01,  2.83661253E-02, -1.07663110E-05,
                       1.95749020E-09, -1.36589418E-13,  3.23173845E+03,
                      -4.20963085E+01])),
        transport=gas_transport(geom='nonlinear',
                                diam=5.681,
                                well_depth=388.325))

species(name=u'C6H12(403)',
        atoms='H:12 C:6',
        thermo=(NASA([100.00, 1018.92],
                     [ 1.21827324E+00,  4.88303598E-02,  8.49335826E-06,
                      -3.91899735E-08,  1.67107196E-11, -8.55522126E+03,
                       2.43074946E+01]),
                NASA([1018.92, 5000.00],
                     [ 1.16698119E+01,  3.59250755E-02, -1.39120664E-05,
                       2.55991991E-09, -1.79822160E-13, -1.21450086E+04,
                      -3.34751762E+01])),
        transport=gas_transport(geom='nonlinear',
                                diam=5.884,
                                well_depth=388.064))

species(name=u'C8H12(426)',
        atoms='H:12 C:8',
        thermo=(NASA([100.00, 966.56],
                     [-1.28183216E-01,  7.35572918E-02, -1.44333618E-05,
                      -3.89698452E-08,  2.17299794E-11,  1.04422483E+04,
                       2.89601759E+01]),
                NASA([966.56, 5000.00],
                     [ 2.02785414E+01,  2.99584765E-02, -1.01704686E-05,
                       1.81720743E-09, -1.29537878E-13,  4.58909334E+03,
                      -7.86679341E+01])),
        transport=gas_transport(geom='nonlinear',
                                diam=6.171,
                                well_depth=433.47))

species(name=u'C6H12(430)',
        atoms='H:12 C:6',
        thermo=(NASA([100.00, 1083.88],
                     [ 1.36789859E+00,  4.60332170E-02,  1.03872042E-05,
                      -3.61548644E-08,  1.41144370E-11, -9.21215455E+03,
                       2.36685346E+01]),
                NASA([1083.88, 5000.00],
                     [ 1.07762218E+01,  3.82405519E-02, -1.60946813E-05,
                       3.05489613E-09, -2.16276948E-13, -1.28334192E+04,
                      -2.97757608E+01])),
        transport=gas_transport(geom='nonlinear',
                                diam=5.876,
                                well_depth=387.836))

species(name=u'C8H12(454)',
        atoms='H:12 C:8',
        thermo=(NASA([100.00, 969.72],
                     [ 3.93158683E-02,  6.94810364E-02, -5.67867310E-06,
                      -4.59940342E-08,  2.36868668E-11,  1.06247696E+04,
                       2.95643335E+01]),
                NASA([969.72, 5000.00],
                     [ 1.95488470E+01,  3.08499781E-02, -1.06480761E-05,
                       1.91982703E-09, -1.37319493E-13,  4.87359776E+03,
                      -7.41022237E+01])),
        transport=gas_transport(geom='nonlinear',
                                diam=6.217,
                                well_depth=440.767))

species(name=u'C6H12(459)',
        atoms='H:12 C:6',
        thermo=(NASA([100.00, 1839.14],
                     [ 7.39766525E-01,  6.35836379E-02, -3.85035731E-05,
                       1.16726754E-08, -1.43915861E-12, -9.53996498E+03,
                       2.35193792E+01]),
                NASA([1839.14, 5000.00],
                     [ 1.56639911E+01,  3.11245214E-02, -1.20299805E-05,
                       2.07631491E-09, -1.34696441E-13, -1.50295162E+04,
                      -5.75746881E+01])),
        transport=gas_transport(geom='nonlinear',
                                diam=5.925,
                                well_depth=395.365))

species(name=u'C8H14(476)',
        atoms='H:14 C:8',
        thermo=(NASA([100.00, 1016.25],
                     [-1.96777655E-01,  7.73097837E-02, -2.22069863E-05,
                      -2.37965356E-08,  1.39851151E-11, -2.84093532E+03,
                       3.12908370E+01]),
                NASA([1016.25, 5000.00],
                     [ 1.72431734E+01,  4.07120734E-02, -1.54898359E-05,
                       2.82734689E-09, -1.98026375E-13, -8.04042418E+03,
                      -6.12697843E+01])),
        transport=gas_transport(geom='nonlinear',
                                diam=6.376,
                                well_depth=433.055))

species(name=u'C5H10(546)',
        atoms='H:10 C:5',
        thermo=(NASA([100.00, 1065.88],
                     [ 1.83973645E+00,  3.88165649E-02,  3.95415802E-06,
                      -2.48620336E-08,  1.01608534E-11, -6.45875726E+03,
                       1.88194915E+01]),
                NASA([1065.88, 5000.00],
                     [ 8.87931728E+00,  3.15047857E-02, -1.26438740E-05,
                       2.33666558E-09, -1.63001335E-13, -9.04475166E+03,
                      -2.06827600E+01])),
        transport=gas_transport(geom='nonlinear',
                                diam=5.558,
                                well_depth=369.729))

species(name=u'C5H10(682)',
        atoms='H:10 C:5',
        thermo=(NASA([100.00, 1893.09],
                     [ 2.46381073E+00,  4.04325284E-02, -1.26603968E-05,
                      -1.31821688E-09,  8.04023533E-13, -6.15501999E+03,
                       1.57743430E+01]),
                NASA([1893.09, 5000.00],
                     [ 1.47224340E+01,  2.74694228E-02, -1.26411130E-05,
                       2.28536389E-09, -1.48647100E-13, -1.31148306E+04,
                      -5.73135407E+01])),
        transport=gas_transport(geom='nonlinear',
                                diam=5.608,
                                well_depth=377.434))

species(name=u'CH4(765)',
        atoms='H:4 C:1',
        thermo=(NASA([100.00, 1084.12],
                     [ 4.20541524E+00, -5.35557362E-03,  2.51123265E-05,
                      -2.13762843E-08,  5.97523937E-12, -1.01619433E+04,
                      -9.21279283E-01]),
                NASA([1084.12, 5000.00],
                     [ 9.08265721E-01,  1.14540858E-02, -4.57173828E-06,
                       8.29191671E-10, -5.66314895E-14, -9.71997444E+03,
                       1.39930944E+01])),
        transport=gas_transport(geom='nonlinear',
                                diam=3.746,
                                well_depth=141.4,
                                polar=2.6,
                                rot_relax=13.0))

species(name=u'C8H14(946)',
        atoms='H:14 C:8',
        thermo=(NASA([100.00, 999.32],
                     [-8.27296041E-02,  7.33926821E-02, -9.70961131E-06,
                      -3.77339221E-08,  1.91784792E-11, -2.27794802E+03,
                       3.16114703E+01]),
                NASA([999.32, 5000.00],
                     [ 1.74908493E+01,  3.99675318E-02, -1.49508424E-05,
                       2.72972667E-09, -1.92366979E-13, -7.63361766E+03,
                      -6.23819175E+01])),
        transport=gas_transport(geom='nonlinear',
                                diam=6.384,
                                well_depth=433.303))

species(name=u'C8H12(976)',
        atoms='H:12 C:8',
        thermo=(NASA([100.00, 966.56],
                     [-1.28183216E-01,  7.35572918E-02, -1.44333618E-05,
                      -3.89698452E-08,  2.17299794E-11,  1.04422483E+04,
                       2.89601759E+01]),
                NASA([966.56, 5000.00],
                     [ 2.02785414E+01,  2.99584765E-02, -1.01704686E-05,
                       1.81720743E-09, -1.29537878E-13,  4.58909334E+03,
                      -7.86679341E+01])),
        transport=gas_transport(geom='nonlinear',
                                diam=6.171,
                                well_depth=433.47))

species(name=u'C8H14(984)',
        atoms='H:14 C:8',
        thermo=(NASA([100.00, 1016.24],
                     [-1.96755810E-01,  7.73095243E-02, -2.22060748E-05,
                      -2.37977152E-08,  1.39856141E-11, -3.01706290E+03,
                       3.14467567E+01]),
                NASA([1016.24, 5000.00],
                     [ 1.72430776E+01,  4.07122350E-02, -1.54899285E-05,
                       2.82736868E-09, -1.98028177E-13, -8.21651015E+03,
                      -6.11132465E+01])),
        transport=gas_transport(geom='nonlinear',
                                diam=6.376,
                                well_depth=433.055))

species(name=u'S(1015)',
        atoms='H:14 C:8',
        thermo=(NASA([100.00, 996.85],
                     [-2.51936173E-01,  7.74918354E-02, -1.85584564E-05,
                      -3.05650944E-08,  1.71489431E-11, -2.46039773E+03,
                       3.10132649E+01]),
                NASA([996.85, 5000.00],
                     [ 1.82159670E+01,  3.90829101E-02, -1.44768342E-05,
                       2.62789418E-09, -1.84646738E-13, -7.91590818E+03,
                      -6.69213086E+01])),
        transport=gas_transport(geom='nonlinear',
                                diam=6.336,
                                well_depth=426.003))

species(name=u'S(1031)',
        atoms='H:16 C:8',
        thermo=(NASA([100.00, 1074.80],
                     [-3.42825371E-01,  8.14529277E-02, -2.67801190E-05,
                      -1.52658314E-08,  9.56904008E-12, -1.54154811E+04,
                       3.35832339E+01]),
                NASA([1074.80, 5000.00],
                     [ 1.55849059E+01,  4.91816615E-02, -1.94317842E-05,
                       3.55420548E-09, -2.46321453E-13, -2.03991393E+04,
                      -5.16642177E+01])),
        transport=gas_transport(geom='nonlinear',
                                diam=6.537,
                                well_depth=425.714))

species(name=u'S(1032)',
        atoms='H:16 C:8',
        thermo=(NASA([100.00, 1071.90],
                     [-1.65695882E-01,  7.72599603E-02, -1.76025924E-05,
                      -2.28595983E-08,  1.17785676E-11, -1.55604654E+04,
                       3.39970599E+01]),
                NASA([1071.90, 5000.00],
                     [ 1.48246326E+01,  5.01251738E-02, -1.99393902E-05,
                       3.66391185E-09, -2.54690889E-13, -2.04288566E+04,
                      -4.70822913E+01])),
        transport=gas_transport(geom='nonlinear',
                                diam=6.586,
                                well_depth=432.977))

species(name=u'S(1057)',
        atoms='H:12 C:7',
        thermo=(NASA([100.00, 999.68],
                     [ 4.29571406E-01,  6.49379719E-02, -1.42316263E-05,
                      -2.68110632E-08,  1.46756236E-11,  1.33179837E+03,
                       2.65680971E+01]),
                NASA([999.68, 5000.00],
                     [ 1.58208064E+01,  3.35710199E-02, -1.25070130E-05,
                       2.27563528E-09, -1.59971208E-13, -3.25538740E+03,
                      -5.52328098E+01])),
        transport=gas_transport(geom='nonlinear',
                                diam=5.989,
                                well_depth=405.778))

species(name=u'S(1137)',
        atoms='H:14 C:8',
        thermo=(NASA([100.00, 1031.59],
                     [-3.24308169E-01,  8.09803459E-02, -3.24425386E-05,
                      -1.31536671E-08,  1.01843255E-11, -1.50090156E+03,
                       3.15196958E+01]),
                NASA([1031.59, 5000.00],
                     [ 1.73697073E+01,  4.09232311E-02, -1.57129317E-05,
                       2.86474556E-09, -1.99759457E-13, -6.67068809E+03,
                      -6.17573781E+01])),
        transport=gas_transport(geom='nonlinear',
                                diam=6.303,
                                well_depth=423.151))

species(name=u'S(1259)',
        atoms='H:12 C:8',
        thermo=(NASA([100.00, 1086.85],
                     [ 4.16666707E-01,  6.71551541E-02, -2.11380215E-05,
                      -1.29841076E-08,  7.80074417E-12,  1.12931799E+04,
                       2.75110729E+01]),
                NASA([1086.85, 5000.00],
                     [ 1.33702771E+01,  4.16858848E-02, -1.66324643E-05,
                       3.04995240E-09, -2.11355555E-13,  7.16599721E+03,
                      -4.20947236E+01])),
        transport=gas_transport(geom='nonlinear',
                                diam=6.243,
                                well_depth=443.592))

species(name=u'C5H8(1487)',
        atoms='H:8 C:5',
        thermo=(NASA([100.00, 1049.25],
                     [ 2.01062155E+00,  3.15407187E-02,  2.07789480E-05,
                      -4.44088985E-08,  1.72419112E-11,  7.01383967E+03,
                       1.65768346E+01]),
                NASA([1049.25, 5000.00],
                     [ 1.14809937E+01,  2.45641673E-02, -1.08867259E-05,
                       2.16707025E-09, -1.59145781E-13,  3.42314914E+03,
                      -3.72078866E+01])),
        transport=gas_transport(geom='nonlinear',
                                diam=5.404,
                                well_depth=377.736))
