units(length='cm', time='s', quantity='mol', act_energy='kcal/mol')

ideal_gas(name='gas',
          elements="H D T C Ci O Oi N Ne Ar He Si S Cl X",
          species="""n-heptane   Ar          He          Ne
                     N2          C2H4(2)     C4H8-1(3)   C4H8-2(4)
                     C4H6(7)     H2(68)      C6H8(111)   C8H10(114)
                     S(192)      C2H6(217)   S(246)      C8H10(281)
                     S(344)      S(360)      S(368)      S(660)
                     S(1035)     S(1593)     S(1630)     S(1817)
                     S(1839)     S(1840)     S(1849)     S(1855)
                     S(3632)     S(3634)     S(21182)    S(21184)""",
          reactions='gas-*',
          initial_state=state(temperature=300.0, pressure=OneAtm))

ideal_interface(name='surface1',
                elements="H D T C Ci O Oi N Ne Ar He Si S Cl X",
                species="""X(1)        HX(5)       C2H3X(37)   C2H5X(40)
                          C4H5X(80)   C4H5X(81)   C6H7X(132)  C6H7X(134)
                          C8H9X(282)  C8H9X(284)  SX(1650)    SX(14741)
                          SX(14743)   SX(16228)""",
                site_density=2.72e-09,
                phases="gas",
          reactions='surface1-*',
                initial_state=state(temperature=300.0, pressure=OneAtm))

#-------------------------------------------------------------------------------
# Element data
#-------------------------------------------------------------------------------

element(symbol=u'X', atomic_mass=195.083)
element(symbol=u'Ci', atomic_mass=13.003)
element(symbol=u'D', atomic_mass=2.014)
element(symbol=u'Oi', atomic_mass=18.0)
element(symbol=u'T', atomic_mass=3.016)
#-------------------------------------------------------------------------------
# Species data
#-------------------------------------------------------------------------------

species(name=u'n-heptane',
        atoms='H:16 C:7',
        thermo=(NASA([100.00, 1262.73],
                     [-2.91681405E-03,  7.69373649E-02, -3.48025563E-05,
                       1.86095180E-09,  2.01573617E-12, -2.57829342E+04,
                       3.00312148E+01]),
                NASA([1262.73, 5000.00],
                     [ 1.38377915E+01,  4.85945016E-02, -1.95474548E-05,
                       3.52837178E-09, -2.39064676E-13, -3.05141556E+04,
                      -4.48642836E+01])))

species(name=u'Ar',
        atoms='Ar:1',
        thermo=(NASA([200.00, 1000.00],
                     [ 2.50000000E+00,  0.00000000E+00,  0.00000000E+00,
                       0.00000000E+00,  0.00000000E+00, -7.45375000E+02,
                       4.37967000E+00]),
                NASA([1000.00, 6000.00],
                     [ 2.50000000E+00,  0.00000000E+00,  0.00000000E+00,
                       0.00000000E+00,  0.00000000E+00, -7.45375000E+02,
                       4.37967000E+00])))

species(name=u'He',
        atoms='He:1',
        thermo=(NASA([200.00, 1000.00],
                     [ 2.50000000E+00,  0.00000000E+00,  0.00000000E+00,
                       0.00000000E+00,  0.00000000E+00, -7.45375000E+02,
                       9.28724000E-01]),
                NASA([1000.00, 6000.00],
                     [ 2.50000000E+00,  0.00000000E+00,  0.00000000E+00,
                       0.00000000E+00,  0.00000000E+00, -7.45375000E+02,
                       9.28724000E-01])))

species(name=u'Ne',
        atoms='Ne:1',
        thermo=(NASA([200.00, 1000.00],
                     [ 2.50000000E+00,  0.00000000E+00,  0.00000000E+00,
                       0.00000000E+00,  0.00000000E+00, -7.45375000E+02,
                       3.35532000E+00]),
                NASA([1000.00, 6000.00],
                     [ 2.50000000E+00,  0.00000000E+00,  0.00000000E+00,
                       0.00000000E+00,  0.00000000E+00, -7.45375000E+02,
                       3.35532000E+00])))

species(name=u'N2',
        atoms='N:2',
        thermo=(NASA([200.00, 1000.00],
                     [ 3.53101000E+00, -1.23661000E-04, -5.02999000E-07,
                       2.43531000E-09, -1.40881000E-12, -1.04698000E+03,
                       2.96747000E+00]),
                NASA([1000.00, 6000.00],
                     [ 2.95258000E+00,  1.39690000E-03, -4.92632000E-07,
                       7.86010000E-11, -4.60755000E-15, -9.23949000E+02,
                       5.87189000E+00])))

species(name=u'C2H4(2)',
        atoms='H:4 C:2',
        thermo=(NASA([100.00, 979.36],
                     [ 3.97471606E+00, -4.75844285E-03,  4.16783770E-05,
                      -4.51392516E-08,  1.54224761E-11,  4.91540746E+03,
                       3.62430844E+00]),
                NASA([979.36, 5000.00],
                     [ 3.55660610E+00,  1.10627464E-02, -4.17019079E-06,
                       7.85586770E-10, -5.70060829E-14,  4.32046489E+03,
                       2.17719479E+00])))

species(name=u'C4H8-1(3)',
        atoms='H:8 C:4',
        thermo=(NASA([100.00, 1007.28],
                     [ 2.58772906E+00,  2.32777969E-02,  1.93412349E-05,
                      -3.55496333E-08,  1.36906009E-11, -1.91872926E+03,
                       1.45750618E+01]),
                NASA([1007.28, 5000.00],
                     [ 7.20517168E+00,  2.36361568E-02, -9.03150028E-06,
                       1.65392666E-09, -1.16019260E-13, -3.79733937E+03,
                      -1.24426257E+01])))

species(name=u'C4H8-2(4)',
        atoms='H:8 C:4',
        thermo=(NASA([100.00, 1157.79],
                     [ 2.51998327E+00,  2.76812799E-02,  9.43783469E-07,
                      -1.25009101E-08,  4.67144666E-12, -3.34374767E+03,
                       1.30195623E+01]),
                NASA([1157.79, 5000.00],
                     [ 6.04225708E+00,  2.60072350E-02, -1.04843374E-05,
                       1.90880922E-09, -1.30600505E-13, -4.86276511E+03,
                      -7.52715109E+00])))

species(name=u'C4H6(7)',
        atoms='H:6 C:4',
        thermo=(NASA([100.00, 946.05],
                     [ 2.80599310E+00,  1.02584471E-02,  6.17260255E-05,
                      -9.01642687E-08,  3.59116961E-11,  1.16584972E+04,
                       1.20621434E+01]),
                NASA([946.05, 5000.00],
                     [ 1.24693720E+01,  1.00553901E-02, -2.41206872E-06,
                       4.57077303E-10, -3.93160571E-14,  8.01077795E+03,
                      -4.36374720E+01])))

species(name=u'H2(68)',
        atoms='H:2',
        thermo=(NASA([100.00, 1959.08],
                     [ 3.43536412E+00,  2.12710353E-04, -2.78625043E-07,
                       3.40267167E-10, -7.76031998E-14, -1.03135984E+03,
                      -3.90841732E+00]),
                NASA([1959.08, 5000.00],
                     [ 2.78816583E+00,  5.87640942E-04,  1.59010417E-07,
                      -5.52739026E-11,  4.34310984E-15, -5.96144270E+02,
                       1.12732655E-01])))

species(name=u'C6H8(111)',
        atoms='H:8 C:6',
        thermo=(NASA([100.00, 972.94],
                     [ 1.82686070E+00,  3.47046353E-02,  2.41070171E-05,
                      -5.44847920E-08,  2.29388832E-11,  1.99100661E+04,
                       1.81393315E+01]),
                NASA([972.94, 5000.00],
                     [ 1.21686202E+01,  2.40472785E-02, -8.58151834E-06,
                       1.57034031E-09, -1.12795334E-13,  1.63897115E+04,
                      -3.92195169E+01])))

species(name=u'C8H10(114)',
        atoms='H:10 C:8',
        thermo=(NASA([100.00, 1006.91],
                     [ 9.59099136E-01,  5.26052795E-02,  1.05118295E-05,
                      -4.60808495E-08,  1.99632153E-11,  2.84660811E+04,
                       2.42924801E+01]),
                NASA([1006.91, 5000.00],
                     [ 1.34171277E+01,  3.60526403E-02, -1.38971709E-05,
                       2.56761905E-09, -1.81631637E-13,  2.42875578E+04,
                      -4.41873377E+01])))

species(name=u'S(192)',
        atoms='H:16 C:12',
        thermo=(NASA([100.00, 980.77],
                     [-2.21845665E+00,  1.15202302E-01, -4.46058253E-05,
                      -2.89292454E-08,  2.08193354E-11,  3.97133228E+04,
                       4.48687920E+01]),
                NASA([980.77, 5000.00],
                     [ 2.59409200E+01,  4.89148103E-02, -1.74910345E-05,
                       3.12129948E-09, -2.18247198E-13,  3.18543069E+04,
                      -1.02343316E+02])))

species(name=u'C2H6(217)',
        atoms='H:6 C:2',
        thermo=(NASA([100.00, 1012.42],
                     [ 3.72239291E+00,  1.65083841E-03,  3.44175530E-05,
                      -3.76858229E-08,  1.24450657E-11, -1.15575901E+04,
                       4.68247999E+00]),
                NASA([1012.42, 5000.00],
                     [ 2.82848257E+00,  1.73040568E-02, -6.73334245E-06,
                       1.23742024E-09, -8.65676410E-14, -1.19978080E+04,
                       5.93811707E+00])))

species(name=u'S(246)',
        atoms='H:12 C:10',
        thermo=(NASA([100.00, 1043.18],
                     [ 8.00010427E-02,  7.06155121E-02, -3.33970318E-06,
                      -3.75536308E-08,  1.70371997E-11,  3.70226034E+04,
                       3.04877535E+01]),
                NASA([1043.18, 5000.00],
                     [ 1.48527536E+01,  4.77532684E-02, -1.90425431E-05,
                       3.52560547E-09, -2.47266459E-13,  3.21023102E+04,
                      -5.02171312E+01])))

species(name=u'C8H10(281)',
        atoms='H:10 C:8',
        thermo=(NASA([100.00, 977.35],
                     [ 1.20173571E+00,  3.27272819E-02,  9.65447107E-05,
                      -1.46973565E-07,  5.73039020E-11,  3.66668175E+04,
                       1.86379877E+01]),
                NASA([977.35, 5000.00],
                     [ 1.91455040E+01,  3.13149575E-02, -1.18305343E-05,
                       2.35397473E-09, -1.80727667E-13,  2.97193290E+04,
                      -8.51179199E+01])))

species(name=u'S(344)',
        atoms='H:18 C:14',
        thermo=(NASA([100.00, 971.82],
                     [-3.68195602E+00,  1.43770916E-01, -7.12631321E-05,
                      -2.09268700E-08,  2.15763987E-11,  4.58078673E+04,
                       5.29376472E+01]),
                NASA([971.82, 5000.00],
                     [ 3.25215927E+01,  5.20192401E-02, -1.80271576E-05,
                       3.18287554E-09, -2.22563878E-13,  3.60671783E+04,
                      -1.34600770E+02])))

species(name=u'S(360)',
        atoms='H:18 C:14',
        thermo=(NASA([100.00, 982.88],
                     [-2.97114598E+00,  1.18403033E-01,  4.29807506E-06,
                      -9.72640059E-08,  4.70359899E-11,  2.69291906E+04,
                       4.53467249E+01]),
                NASA([982.88, 5000.00],
                     [ 3.37215723E+01,  5.13174993E-02, -1.88319326E-05,
                       3.55580277E-09, -2.61426544E-13,  1.57437712E+04,
                      -1.51249306E+02])))

species(name=u'S(368)',
        atoms='H:18 C:14',
        thermo=(NASA([100.00, 982.88],
                     [-2.97114598E+00,  1.18403033E-01,  4.29807506E-06,
                      -9.72640059E-08,  4.70359899E-11,  2.69291906E+04,
                       4.53467249E+01]),
                NASA([982.88, 5000.00],
                     [ 3.37215723E+01,  5.13174993E-02, -1.88319326E-05,
                       3.55580277E-09, -2.61426544E-13,  1.57437712E+04,
                      -1.51249306E+02])))

species(name=u'S(660)',
        atoms='H:12 C:10',
        thermo=(NASA([100.00, 968.65],
                     [ 6.55596893E-03,  5.50367595E-02,  8.40309751E-05,
                      -1.50786277E-07,  6.17167027E-11,  3.87297379E+04,
                       2.63275406E+01]),
                NASA([968.65, 5000.00],
                     [ 2.42145071E+01,  3.63241455E-02, -1.28171324E-05,
                       2.46810154E-09, -1.87634557E-13,  3.02280478E+04,
                      -1.09367124E+02])))

species(name=u'S(1035)',
        atoms='H:12 C:10',
        thermo=(NASA([100.00, 934.90],
                     [ 1.14949863E+00,  2.56056208E-02,  1.48145681E-04,
                      -2.17005632E-07,  8.71671305E-11,  1.98025721E+04,
                       2.52596418E+01]),
                NASA([934.90, 5000.00],
                     [ 2.30268642E+01,  2.66924504E-02, -5.52368921E-06,
                       9.11070585E-10, -7.58555397E-14,  1.15738298E+04,
                      -1.00944658E+02])))

species(name=u'S(1593)',
        atoms='H:11 C:10',
        thermo=(NASA([100.00, 927.11],
                     [ 5.80169242E-01,  4.54991468E-02,  8.45438319E-05,
                      -1.52228728E-07,  6.51050039E-11,  3.12309550E+04,
                       2.57307422E+01]),
                NASA([927.11, 5000.00],
                     [ 2.31406667E+01,  2.44209791E-02, -4.73406672E-06,
                       6.89776122E-10, -5.41266922E-14,  2.37703881E+04,
                      -9.90782512E+01])))

species(name=u'S(1630)',
        atoms='H:12 C:10',
        thermo=(NASA([100.00, 936.06],
                     [ 2.95830266E-01,  5.44689708E-02,  6.09446235E-05,
                      -1.25610619E-07,  5.46763618E-11,  1.70397067E+04,
                       2.51926264E+01]),
                NASA([936.06, 5000.00],
                     [ 2.24308561E+01,  2.84460946E-02, -7.22714492E-06,
                       1.19289639E-09, -8.89025831E-14,  9.89187725E+03,
                      -9.61788204E+01])))

species(name=u'S(1817)',
        atoms='H:22 C:18',
        thermo=(NASA([100.00, 947.01],
                     [-4.37830107E+00,  1.40563199E-01,  2.55386918E-05,
                      -1.48509896E-07,  7.17385926E-11,  4.67597113E+04,
                       6.22761192E+01]),
                NASA([947.01, 5000.00],
                     [ 4.04907631E+01,  5.95411212E-02, -1.79807682E-05,
                       3.10681305E-09, -2.24215188E-13,  3.33963125E+04,
                      -1.77435036E+02])))

species(name=u'S(1839)',
        atoms='H:22 C:18',
        thermo=(NASA([100.00, 1015.52],
                     [-3.50408667E+00,  1.30079713E-01,  1.33569028E-05,
                      -1.00948895E-07,  4.49181735E-11,  3.29528780E+04,
                       4.41703756E+01]),
                NASA([1015.52, 5000.00],
                     [ 2.92045103E+01,  8.09420107E-02, -3.17816228E-05,
                       5.96318854E-09, -4.25993345E-13,  2.22001186E+04,
                      -1.34366963E+02])))

species(name=u'S(1840)',
        atoms='H:22 C:18',
        thermo=(NASA([100.00, 991.03],
                     [-3.60841306E+00,  1.26326173E-01,  3.97985094E-05,
                      -1.39162827E-07,  6.09914610E-11,  3.09247201E+04,
                       5.23207435E+01]),
                NASA([991.03, 5000.00],
                     [ 3.34351851E+01,  7.39247532E-02, -2.78772987E-05,
                       5.24240999E-09, -3.80217326E-13,  1.88134610E+04,
                      -1.50120203E+02])))

species(name=u'S(1849)',
        atoms='H:22 C:18',
        thermo=(NASA([100.00, 977.97],
                     [-3.77762386E+00,  1.29755855E-01,  3.56849517E-05,
                      -1.40276396E-07,  6.31272791E-11,  3.00981852E+04,
                       4.89542826E+01]),
                NASA([977.97, 5000.00],
                     [ 3.47815054E+01,  7.08372406E-02, -2.54733561E-05,
                       4.70819708E-09, -3.40640336E-13,  1.78318953E+04,
                      -1.60366202E+02])))

species(name=u'S(1855)',
        atoms='H:22 C:18',
        thermo=(NASA([100.00, 994.64],
                     [-3.17115987E+00,  1.18957802E-01,  4.92178719E-05,
                      -1.40506395E-07,  5.96727270E-11,  3.25591966E+04,
                       4.83866451E+01]),
                NASA([994.64, 5000.00],
                     [ 2.94106208E+01,  7.98043219E-02, -3.02911611E-05,
                       5.65296314E-09, -4.05913067E-13,  2.15330554E+04,
                      -1.31472452E+02])))

species(name=u'S(3632)',
        atoms='H:22 C:18',
        thermo=(NASA([100.00, 999.54],
                     [-3.12172139E+00,  1.19145369E-01,  4.47292607E-05,
                      -1.33222922E-07,  5.64734536E-11,  3.10834108E+04,
                       4.77711898E+01]),
                NASA([999.54, 5000.00],
                     [ 2.83845425E+01,  8.13945346E-02, -3.11778874E-05,
                       5.81887669E-09, -4.16627188E-13,  2.03725131E+04,
                      -1.26286709E+02])))

species(name=u'S(3634)',
        atoms='H:22 C:18',
        thermo=(NASA([100.00, 989.40],
                     [-3.00040958E+00,  1.13002896E-01,  6.75774973E-05,
                      -1.60390903E-07,  6.69008192E-11,  3.17829118E+04,
                       4.80260996E+01]),
                NASA([989.40, 5000.00],
                     [ 2.97598157E+01,  7.88538469E-02, -2.96725619E-05,
                       5.54913005E-09, -4.00451136E-13,  2.04891431E+04,
                      -1.33987467E+02])))

species(name=u'S(21182)',
        atoms='H:18 C:14',
        thermo=(NASA([100.00, 1030.58],
                     [-2.12257101E+00,  1.01742439E-01,  3.25378450E-05,
                      -1.05622433E-07,  4.39697995E-11,  2.74365000E+04,
                       4.25936761E+01]),
                NASA([1030.58, 5000.00],
                     [ 2.64166790E+01,  6.72299172E-02, -2.82206047E-05,
                       5.47946716E-09, -3.98364541E-13,  1.75044697E+04,
                      -1.15598673E+02])))

species(name=u'S(21184)',
        atoms='H:18 C:14',
        thermo=(NASA([100.00, 1025.58],
                     [-2.06802405E+00,  9.91730729E-02,  4.18353795E-05,
                      -1.16201193E-07,  4.78525703E-11,  2.78185672E+04,
                       4.29126444E+01]),
                NASA([1025.58, 5000.00],
                     [ 2.68512196E+01,  6.66265861E-02, -2.79288129E-05,
                       5.44120699E-09, -3.97137939E-13,  1.76666314E+04,
                      -1.17910878E+02])))

species(name=u'X(1)',
        atoms='X:1',
        thermo=(NASA([100.00, 1554.80],
                     [ 7.10139498E-03, -4.25619522E-05,  8.98533016E-08,
                      -7.80193649E-11,  2.32465471E-14, -8.76101712E-01,
                      -3.11211229E-02]),
                NASA([1554.80, 5000.00],
                     [ 1.60299900E-01, -2.52235409E-04,  1.14181275E-07,
                      -1.21471653E-11,  3.85790025E-16, -7.08100885E+01,
                      -9.09527530E-01])))

species(name=u'HX(5)',
        atoms='H:1 X:1',
        thermo=(NASA([100.00, 952.91],
                     [-3.80965452E-01,  5.47228709E-03,  2.60912778E-06,
                      -9.64961980E-09,  4.63946753E-12, -3.62029043E+03,
                       1.01725550E+00]),
                NASA([952.91, 5000.00],
                     [ 2.80339655E+00, -5.41047017E-04,  4.99507978E-07,
                      -7.54963647E-11,  3.06772366E-15, -4.56103985E+03,
                      -1.59436787E+01])))

species(name=u'C2H3X(37)',
        atoms='H:3 C:2 X:1',
        thermo=(NASA([100.00, 928.62],
                     [ 3.83091018E+00, -8.76381562E-03,  6.97956896E-05,
                      -8.67969174E-08,  3.33218121E-11,  1.53806450E+04,
                      -1.81151753E+01]),
                NASA([928.62, 5000.00],
                     [ 8.78054562E+00,  1.92497720E-03,  8.25825014E-07,
                      -1.63749818E-10,  5.71728318E-15,  1.30812419E+04,
                      -4.90588618E+01])))

species(name=u'C2H5X(40)',
        atoms='H:5 C:2 X:1',
        thermo=(NASA([100.00, 803.81],
                     [-1.64625424E+00,  3.89626488E-02, -4.31128887E-05,
                       2.97076939E-08, -8.80222915E-12,  3.67645335E+03,
                       9.27323637E+00]),
                NASA([803.81, 5000.00],
                     [ 1.97598112E+00,  2.09382766E-02, -9.47916922E-06,
                       1.81392948E-09, -1.27206354E-13,  3.09410457E+03,
                      -7.41107956E+00])))

species(name=u'C4H5X(80)',
        atoms='H:5 C:4 X:1',
        thermo=(NASA([100.00, 936.52],
                     [ 2.68471723E+00,  1.36244496E-02,  5.32591849E-05,
                      -8.32912448E-08,  3.41499374E-11,  1.74738752E+04,
                      -1.06510487E+01]),
                NASA([936.52, 5000.00],
                     [ 1.29012266E+01,  8.96921861E-03, -1.71920076E-06,
                       2.89744517E-10, -2.58686364E-14,  1.38508362E+04,
                      -6.83963397E+01])))

species(name=u'C4H5X(81)',
        atoms='H:5 C:4 X:1',
        thermo=(NASA([100.00, 928.63],
                     [ 2.64232495E+00,  8.31109593E-03,  8.12146261E-05,
                      -1.21398701E-07,  4.98630759E-11,  2.26567839E+04,
                      -1.03932963E+01]),
                NASA([928.63, 5000.00],
                     [ 1.69490474E+01,  2.00818812E-03,  2.03468841E-06,
                      -4.02657023E-10,  1.85400094E-14,  1.76142896E+04,
                      -9.11990785E+01])))

species(name=u'C6H7X(132)',
        atoms='H:7 C:6 X:1',
        thermo=(NASA([100.00, 939.12],
                     [ 1.23971063E+00,  4.15294424E-02,  2.87312030E-05,
                      -7.68516542E-08,  3.51745289E-11,  2.29404784E+04,
                      -4.03285459E+00]),
                NASA([939.12, 5000.00],
                     [ 1.93724853E+01,  1.27701081E-02, -2.75741682E-06,
                       4.63865028E-10, -3.86965214E-14,  1.73971482E+04,
                      -1.01754711E+02])))

species(name=u'C6H7X(134)',
        atoms='H:7 C:6 X:1',
        thermo=(NASA([100.00, 945.31],
                     [ 1.76545134E+00,  3.00643386E-02,  5.04823806E-05,
                      -9.18356912E-08,  3.86710488E-11,  3.05564199E+04,
                      -4.22047906E+00]),
                NASA([945.31, 5000.00],
                     [ 1.62876414E+01,  1.66989483E-02, -4.60790511E-06,
                       8.23797195E-10, -6.40998588E-14,  2.56623872E+04,
                      -8.48285150E+01])))

species(name=u'C8H9X(282)',
        atoms='H:9 C:8 X:1',
        thermo=(NASA([100.00, 959.28],
                     [ 3.85882967E-01,  5.92908085E-02,  1.54833399E-05,
                      -6.86507645E-08,  3.21558607E-11,  3.14958821E+04,
                       2.06887013E+00]),
                NASA([959.28, 5000.00],
                     [ 2.04284767E+01,  2.50940018E-02, -8.25315628E-06,
                       1.50306504E-09, -1.10971517E-13,  2.53787286E+04,
                      -1.05633347E+02])))

species(name=u'C8H9X(284)',
        atoms='H:9 C:8 X:1',
        thermo=(NASA([100.00, 965.61],
                     [ 9.11784647E-01,  4.78191273E-02,  3.72831813E-05,
                      -8.37427917E-08,  3.57220277E-11,  3.91118185E+04,
                       1.88094318E+00]),
                NASA([965.61, 5000.00],
                     [ 1.73636393E+01,  2.89899348E-02, -1.00851243E-05,
                       1.85870102E-09, -1.36023408E-13,  3.36352136E+04,
                      -8.88204343E+01])))

species(name=u'SX(1650)',
        atoms='H:11 C:10 X:1',
        thermo=(NASA([100.00, 927.64],
                     [ 5.30078619E-01,  4.27204810E-02,  1.04697613E-04,
                      -1.77763104E-07,  7.49979219E-11,  2.44006422E+04,
                       4.98963719E+00]),
                NASA([927.64, 5000.00],
                     [ 2.48735289E+01,  2.39008362E-02, -4.17464067E-06,
                       5.92752551E-10, -4.94687897E-14,  1.61775637E+04,
                      -1.30604019E+02])))

species(name=u'SX(14741)',
        atoms='H:11 C:10 X:1',
        thermo=(NASA([100.00, 927.69],
                     [ 7.23541391E-01,  3.62537226E-02,  1.23659241E-04,
                      -1.97682305E-07,  8.21184824E-11,  2.41616310E+04,
                       9.82932715E+00]),
                NASA([927.69, 5000.00],
                     [ 2.50616261E+01,  2.31460857E-02, -3.63245521E-06,
                       4.99259780E-10, -4.44194027E-14,  1.56943579E+04,
                      -1.27059290E+02])))

species(name=u'SX(14743)',
        atoms='H:11 C:10 X:1',
        thermo=(NASA([100.00, 927.64],
                     [ 5.30078619E-01,  4.27204810E-02,  1.04697613E-04,
                      -1.77763104E-07,  7.49979219E-11,  2.44006422E+04,
                       4.98963719E+00]),
                NASA([927.64, 5000.00],
                     [ 2.48735289E+01,  2.39008362E-02, -4.17464067E-06,
                       5.92752551E-10, -4.94687897E-14,  1.61775637E+04,
                      -1.30604019E+02])))

species(name=u'SX(16228)',
        atoms='H:11 C:10 X:1',
        thermo=(NASA([100.00, 858.71],
                     [-2.36223809E+00,  1.72253487E-01, -3.32016772E-04,
                       3.36237372E-07, -1.26252709E-10,  2.28018768E+04,
                      -3.70571050E+01]),
                NASA([858.71, 5000.00],
                     [ 2.19591766E-01,  8.36536232E-02, -4.34927004E-05,
                       8.39686641E-09, -5.75296140E-13,  2.51816915E+04,
                      -3.26810095E+01])))

#-------------------------------------------------------------------------------
# Reaction data
#-------------------------------------------------------------------------------
#  Reaction index: Chemkin #1; RMG #466
#  Template reaction: 1,4_Cyclic_birad_scission
#  Flux pairs: C8H10(281), C8H10(114);
#  Estimated using template [RJJ] for rate rule [R6JJ]
#  Euclidian distance = 1.0
#  family: 1,4_Cyclic_birad_scission

# Reaction 1
reaction('C8H10(281) <=> C8H10(114)', [1.000000e+13, 0.0, 0.0],
         id='gas-1')
#  Reaction index: Chemkin #2; RMG #1013
#  Template reaction: 1,4_Cyclic_birad_scission
#  Flux pairs: S(660), S(246);
#  Estimated using template [RJJ] for rate rule [R6JJ]
#  Euclidian distance = 1.0
#  family: 1,4_Cyclic_birad_scission

# Reaction 2
reaction('S(660) <=> S(246)', [1.000000e+13, 0.0, 0.0],
         id='gas-2')
#  Reaction index: Chemkin #3; RMG #1618
#  Template reaction: Birad_recombination
#  Flux pairs: S(660), S(1035);
#  From training reaction 1 used for R6_SSSDS;C_rad_out_H/OneDe;Cpri_rad_out_2H
#  Exact match found for rate rule [R6_SSSDS;C_rad_out_H/OneDe;Cpri_rad_out_2H]
#  Euclidian distance = 0
#  family: Birad_recombination

# Reaction 3
reaction('S(660) <=> S(1035)', [2.000000e+12, 0.0, 1.8],
         id='gas-3')
#  Reaction index: Chemkin #4; RMG #334
#  Template reaction: 1,4_Linear_birad_scission
#  Flux pairs: S(192), C6H8(111); S(192), C6H8(111);
#  Exact match found for rate rule [RJJ]
#  Euclidian distance = 0
#  family: 1,4_Linear_birad_scission
#  Ea raised from 0.0 to 1.4 kJ/mol to match endothermicity of reaction.

# Reaction 4
reaction('S(192) <=> C6H8(111) + C6H8(111)', [5.000000e+12, 0.0, 0.338],
         id='gas-4')
#  Reaction index: Chemkin #5; RMG #2764
#  Template reaction: 1,4_Linear_birad_scission
#  Flux pairs: S(1817), S(1035); S(1817), C8H10(114);
#  Exact match found for rate rule [RJJ]
#  Euclidian distance = 0
#  family: 1,4_Linear_birad_scission
#  Ea raised from 0.0 to 13.2 kJ/mol to match endothermicity of reaction.

# Reaction 5
reaction('S(1817) <=> S(1035) + C8H10(114)', [5.000000e+12, 0.0, 3.163],
         id='gas-5')
#  Reaction index: Chemkin #6; RMG #2796
#  Template reaction: Diels_alder_addition
#  Flux pairs: C8H10(114), S(1849); S(1035), S(1849);
#  Estimated using template [diene_unsub_unsub_out;diene_in;ene] for rate rule [diene_unsub_unsub_out;diene_in_De2;ene_De2_2H]
#  Euclidian distance = 2.2360679775
#  Multiplied by reaction path degeneracy 2.0
#  family: Diels_alder_addition

# Reaction 6
reaction('S(1035) + C8H10(114) <=> S(1849)', [3.076471e+08, 0.441, 24.113],
         options='duplicate',
         id='gas-6')
#  Reaction index: Chemkin #7; RMG #2799
#  Template reaction: Diels_alder_addition
#  Flux pairs: C8H10(114), S(1849); S(1035), S(1849);
#  Estimated using template [diene_unsub_unsub_out;diene_in;ene] for rate rule [diene_unsub_unsub_out;diene_in_De2;ene_2H_De2]
#  Euclidian distance = 2.2360679775
#  family: Diels_alder_addition

# Reaction 7
reaction('S(1035) + C8H10(114) <=> S(1849)', [1.538235e+08, 0.441, 24.113],
         options='duplicate',
         id='gas-7')
#  Reaction index: Chemkin #8; RMG #3789
#  Template reaction: Birad_recombination
#  Flux pairs: S(1817), S(1849);
#  Estimated using template [R6_SSSDS;C_rad_out_single;Cpri_rad_out_2H] for rate rule [R6_SSSDS;C_rad_out_TwoDe;Cpri_rad_out_2H]
#  Euclidian distance = 2.0
#  family: Birad_recombination

# Reaction 8
reaction('S(1817) <=> S(1849)', [2.000000e+12, 0.0, 1.8],
         id='gas-8')
#  Reaction index: Chemkin #9; RMG #5164
#  Template reaction: Intra_ene_reaction
#  Flux pairs: S(3632), S(1849);
#  Estimated using template [1_3_pentadiene;CH_end;CdHC_2] for rate rule [1_3_pentadiene;CH3_1;CdHC_2]
#  Euclidian distance = 1.0
#  Multiplied by reaction path degeneracy 3.0
#  family: Intra_ene_reaction

# Reaction 9
reaction('S(3632) <=> S(1849)', [6.375000e+09, 0.991, 10.983],
         id='gas-9')
#  Reaction index: Chemkin #10; RMG #5166
#  Template reaction: Intra_ene_reaction
#  Flux pairs: S(3634), S(1849);
#  Estimated using template [1_3_pentadiene;CH_end;CdHC_2] for rate rule [1_3_pentadiene;CH3_1;CdHC_2]
#  Euclidian distance = 1.0
#  Multiplied by reaction path degeneracy 3.0
#  family: Intra_ene_reaction

# Reaction 10
reaction('S(3634) <=> S(1849)', [6.375000e+09, 0.991, 10.983],
         id='gas-10')
#  Reaction index: Chemkin #11; RMG #616
#  Template reaction: 1,4_Linear_birad_scission
#  Flux pairs: S(344), C8H10(114); S(344), C6H8(111);
#  Exact match found for rate rule [RJJ]
#  Euclidian distance = 0
#  family: 1,4_Linear_birad_scission
#  Ea raised from 0.0 to 22.1 kJ/mol to match endothermicity of reaction.

# Reaction 11