units(length='cm', time='s', quantity='mol', act_energy='kcal/mol')

ideal_gas(name='gas',
          elements="H D T C Ci O Oi N Ne Ar He Si S Cl X",
          species="""n-heptane   Ar          He          Ne
                     N2          C2H4(2)     C4H8-1(3)   C4H8-2(4)
                     C4H6(7)     C6H8(9)     H2(47)      C8H10(78)
                     C2H6(135)   C6H10(137)  C6H10(140)  C4H10(141)
                     CH4(142)    C8H12(151)  C8H12(155)  C6H12(173)
                     C8H12(185)  C6H12(190)  C8H12(201)  C6H12(206)
                     C4H8(217)   C6H10(218)  C6H12(226)  S(276)
                     C8H12(400)  S(444)      S(448)      C5H8c(565)
                     C7H10(922)  S(1122)     C5H8(1190)  S(1570)
                     S(1579)     S(1644)     S(2792)     S(3302)
                     S(3530)     S(4521)     S(7887)""",
          reactions='gas-*',
          transport='Mix',
          initial_state=state(temperature=300.0, pressure=OneAtm))

ideal_interface(name='surface1',
                elements="H D T C Ci O Oi N Ne Ar He Si S Cl X",
                species="""X(1)        HX(5)       C2H3X(27)   allylX(28)
                          CH3X(29)    C2H5X(30)   C4H7X(31)   C4H7X(32)
                          C4H7X(33)   C4H7X(34)   C3H5X(35)   C4H7X(36)
                          C4H7X(37)   C4H9X(44)   C4H9X(45)   C6H11X(50)
                          C6H11X(51)  C6H11X(52)  C4H5X(56)   C4H5X(57)
                          C6H9X(65)   C6H9X(66)   C6H9X(72)   C8H13X(74)
                          C8H11X(76)  C8H11X(77)  C6H7X(84)   C6H7X(85)
                          C6H7X(86)   C6H9X(97)   C8H11X(99)  C6H9X(118)
                          SX(136)     C4H7X(178)  SX(179)     SX(195)
                          C3H5X(211)  SX(213)     C4H7X(233)  C4H9X(238)
                          C4H9X(239)  SX(241)     SX(270)     C8H9X(299)
                          C8H9X(300)  C8H9X(301)  C8H9X(302)  SX(317)
                          SX(366)     C6H7X(387)  C5H7X(436)  C6H9X(469)
                          SX(472)     C6H9X(571)  SX(585)     SX(586)
                          C6H9X(728)  C6H9X(729)  C5H7X(754)  C5H7X(827)
                          SX(828)     SX(829)     SX(830)     SX(831)
                          SX(832)     SX(833)     SX(934)     SX(935)
                          SX(936)     SX(938)     SX(939)     SX(940)
                          SX(1108)    SX(1111)    SX(1250)    SX(1446)
                          SX(1795)    SX(1920)    SX(1921)    SX(1923)
                          SX(1924)    SX(2239)    SX(2240)    SX(2241)
                          SX(2242)    SX(2368)    SX(2433)    SX(2562)
                          SX(2711)    SX(2882)    SX(2883)    SX(3816)
                          SX(4117)    SX(4745)    SX(4799)    SX(6397)
                          SX(6484)    SX(7880)    SX(7881)    SX(7985)
                          SX(8087)    SX(8189)""",
                site_density=2.72e-09,
                phases="gas",
          reactions='surface1-*',
                initial_state=state(temperature=300.0, pressure=OneAtm))

#-------------------------------------------------------------------------------
# Element data
#-------------------------------------------------------------------------------

element(symbol=u'X', atomic_mass=195.083)
element(symbol=u'Ci', atomic_mass=13.003)
element(symbol=u'D', atomic_mass=2.014)
element(symbol=u'Oi', atomic_mass=18.0)
element(symbol=u'T', atomic_mass=3.016)
#-------------------------------------------------------------------------------
# Species data
#-------------------------------------------------------------------------------

species(name=u'n-heptane',
        atoms='H:16 C:7',
        thermo=(NASA([100.00, 1262.73],
                     [-2.91681405E-03,  7.69373649E-02, -3.48025563E-05,
                       1.86095180E-09,  2.01573617E-12, -2.57829342E+04,
                       3.00312148E+01]),
                NASA([1262.73, 5000.00],
                     [ 1.38377915E+01,  4.85945016E-02, -1.95474548E-05,
                       3.52837178E-09, -2.39064676E-13, -3.05141556E+04,
                      -4.48642836E+01])),
        transport=gas_transport(geom='nonlinear',
                                diam=6.366,
                                well_depth=402.997))

species(name=u'Ar',
        atoms='Ar:1',
        thermo=(NASA([200.00, 1000.00],
                     [ 2.50000000E+00,  0.00000000E+00,  0.00000000E+00,
                       0.00000000E+00,  0.00000000E+00, -7.45375000E+02,
                       4.37967000E+00]),
                NASA([1000.00, 6000.00],
                     [ 2.50000000E+00,  0.00000000E+00,  0.00000000E+00,
                       0.00000000E+00,  0.00000000E+00, -7.45375000E+02,
                       4.37967000E+00])),
        transport=gas_transport(geom='atom',
                                diam=3.33,
                                well_depth=136.5))

species(name=u'He',
        atoms='He:1',
        thermo=(NASA([200.00, 1000.00],
                     [ 2.50000000E+00,  0.00000000E+00,  0.00000000E+00,
                       0.00000000E+00,  0.00000000E+00, -7.45375000E+02,
                       9.28724000E-01]),
                NASA([1000.00, 6000.00],
                     [ 2.50000000E+00,  0.00000000E+00,  0.00000000E+00,
                       0.00000000E+00,  0.00000000E+00, -7.45375000E+02,
                       9.28724000E-01])),
        transport=gas_transport(geom='atom',
                                diam=2.576,
                                well_depth=10.2))

species(name=u'Ne',
        atoms='Ne:1',
        thermo=(NASA([200.00, 1000.00],
                     [ 2.50000000E+00,  0.00000000E+00,  0.00000000E+00,
                       0.00000000E+00,  0.00000000E+00, -7.45375000E+02,
                       3.35532000E+00]),
                NASA([1000.00, 6000.00],
                     [ 2.50000000E+00,  0.00000000E+00,  0.00000000E+00,
                       0.00000000E+00,  0.00000000E+00, -7.45375000E+02,
                       3.35532000E+00])),
        transport=gas_transport(geom='atom',
                                diam=3.758,
                                well_depth=148.6))

species(name=u'N2',
        atoms='N:2',
        thermo=(NASA([200.00, 1000.00],
                     [ 3.53101000E+00, -1.23661000E-04, -5.02999000E-07,
                       2.43531000E-09, -1.40881000E-12, -1.04698000E+03,
                       2.96747000E+00]),
                NASA([1000.00, 6000.00],
                     [ 2.95258000E+00,  1.39690000E-03, -4.92632000E-07,
                       7.86010000E-11, -4.60755000E-15, -9.23949000E+02,
                       5.87189000E+00])),
        transport=gas_transport(geom='linear',
                                diam=3.621,
                                well_depth=97.53,
                                polar=1.76,
                                rot_relax=4.0))

species(name=u'C2H4(2)',
        atoms='H:4 C:2',
        thermo=(NASA([100.00, 979.36],
                     [ 3.97471606E+00, -4.75844285E-03,  4.16783770E-05,
                      -4.51392516E-08,  1.54224761E-11,  4.91540746E+03,
                       3.62430844E+00]),
                NASA([979.36, 5000.00],
                     [ 3.55660610E+00,  1.10627464E-02, -4.17019079E-06,
                       7.85586770E-10, -5.70060829E-14,  4.32046489E+03,
                       2.17719479E+00])),
        transport=gas_transport(geom='nonlinear',
                                diam=3.971,
                                well_depth=280.8,
                                rot_relax=1.5))

species(name=u'C4H8-1(3)',
        atoms='H:8 C:4',
        thermo=(NASA([100.00, 1007.28],
                     [ 2.58772906E+00,  2.32777969E-02,  1.93412349E-05,
                      -3.55496333E-08,  1.36906009E-11, -1.91872926E+03,
                       1.45750618E+01]),
                NASA([1007.28, 5000.00],
                     [ 7.20517168E+00,  2.36361568E-02, -9.03150028E-06,
                       1.65392666E-09, -1.16019260E-13, -3.79733937E+03,
                      -1.24426257E+01])),
        transport=gas_transport(geom='nonlinear',
                                diam=5.176,
                                well_depth=357.002,
                                rot_relax=1.0))

species(name=u'C4H8-2(4)',
        atoms='H:8 C:4',
        thermo=(NASA([100.00, 1157.79],
                     [ 2.51998327E+00,  2.76812799E-02,  9.43783469E-07,
                      -1.25009101E-08,  4.67144666E-12, -3.34374767E+03,
                       1.30195623E+01]),
                NASA([1157.79, 5000.00],
                     [ 6.04225708E+00,  2.60072350E-02, -1.04843374E-05,
                       1.90880922E-09, -1.30600505E-13, -4.86276511E+03,
                      -7.52715109E+00])),
        transport=gas_transport(geom='nonlinear',
                                diam=5.289,
                                well_depth=359.053))

species(name=u'C4H6(7)',
        atoms='H:6 C:4',
        thermo=(NASA([100.00, 946.05],
                     [ 2.80599310E+00,  1.02584471E-02,  6.17260255E-05,
                      -9.01642687E-08,  3.59116961E-11,  1.16584972E+04,
                       1.20621434E+01]),
                NASA([946.05, 5000.00],
                     [ 1.24693720E+01,  1.00553901E-02, -2.41206872E-06,
                       4.57077303E-10, -3.93160571E-14,  8.01077795E+03,
                      -4.36374720E+01])),
        transport=gas_transport(geom='nonlinear',
                                diam=5.18,
                                well_depth=357.002,
                                rot_relax=1.0))

species(name=u'C6H8(9)',
        atoms='H:8 C:6',
        thermo=(NASA([100.00, 941.22],
                     [ 1.38427980E+00,  4.14411503E-02,  1.94287417E-05,
                      -6.16688700E-08,  2.86503633E-11,  1.76317461E+04,
                       1.93257509E+01]),
                NASA([941.22, 5000.00],
                     [ 1.69619680E+01,  1.57221707E-02, -4.10118367E-06,
                       6.95736344E-10, -5.26521484E-14,  1.29061672E+04,
                      -6.44097553E+01])),
        transport=gas_transport(geom='nonlinear',
                                diam=5.514,
                                well_depth=396.052))

species(name=u'H2(47)',
        atoms='H:2',
        thermo=(NASA([100.00, 1959.08],
                     [ 3.43536412E+00,  2.12710353E-04, -2.78625043E-07,
                       3.40267167E-10, -7.76031998E-14, -1.03135984E+03,
                      -3.90841732E+00]),
                NASA([1959.08, 5000.00],
                     [ 2.78816583E+00,  5.87640942E-04,  1.59010417E-07,
                      -5.52739026E-11,  4.34310984E-15, -5.96144270E+02,
                       1.12732655E-01])),
        transport=gas_transport(geom='linear',
                                diam=2.833,
                                well_depth=59.7))

species(name=u'C8H10(78)',
        atoms='H:10 C:8',
        thermo=(NASA([100.00, 941.38],
                     [ 8.64508879E-02,  6.59507123E-02,  1.49007776E-06,
                      -6.06862449E-08,  3.13845046E-11,  2.39088929E+04,
                       2.66192822E+01]),
                NASA([941.38, 5000.00],
                     [ 2.28417755E+01,  1.96704891E-02, -5.08803462E-06,
                       8.53682038E-10, -6.42382395E-14,  1.73909786E+04,
                      -9.36509497E+01])),
        transport=gas_transport(geom='nonlinear',
                                diam=6.008,
                                well_depth=441.329))

species(name=u'C2H6(135)',
        atoms='H:6 C:2',
        thermo=(NASA([100.00, 1012.42],
                     [ 3.72239291E+00,  1.65083841E-03,  3.44175530E-05,
                      -3.76858229E-08,  1.24450657E-11, -1.15575901E+04,
                       4.68247999E+00]),
                NASA([1012.42, 5000.00],
                     [ 2.82848257E+00,  1.73040568E-02, -6.73334245E-06,
                       1.23742024E-09, -8.65676410E-14, -1.19978080E+04,
                       5.93811707E+00])),
        transport=gas_transport(geom='nonlinear',
                                diam=4.302,
                                well_depth=252.3,
                                rot_relax=1.5))

species(name=u'C6H10(137)',
        atoms='H:10 C:6',
        thermo=(NASA([100.00, 1045.42],
                     [ 1.54967147E+00,  4.21895837E-02,  1.04895346E-05,
                      -3.69750926E-08,  1.50988524E-11,  6.71774665E+03,
                       2.39491991E+01]),
                NASA([1045.42, 5000.00],
                     [ 1.12124240E+01,  3.19133588E-02, -1.30691489E-05,
                       2.47430092E-09, -1.76160956E-13,  3.23863001E+03,
                      -3.00742335E+01])),
        transport=gas_transport(geom='nonlinear',
                                diam=5.721,
                                well_depth=395.658))

species(name=u'C6H10(140)',
        atoms='H:10 C:6',
        thermo=(NASA([100.00, 1020.63],
                     [ 9.97427413E-01,  5.59777045E-02, -2.05880600E-05,
                      -1.17182304E-08,  8.13452041E-12,  6.30749855E+03,
                       2.38941836E+01]),
                NASA([1020.63, 5000.00],
                     [ 1.33828218E+01,  2.83661253E-02, -1.07663110E-05,
                       1.95749020E-09, -1.36589418E-13,  2.68926840E+03,
                      -4.14511818E+01])),
        transport=gas_transport(geom='nonlinear',
                                diam=5.673,
                                well_depth=388.08))

species(name=u'C4H10(141)',
        atoms='H:10 C:4',
        thermo=(NASA([100.00, 1147.60],
                     [ 2.16918413E+00,  3.43904632E-02, -1.61564236E-06,
                      -1.30726562E-08,  5.17350451E-12, -1.72505136E+04,
                       1.46546701E+01]),
                NASA([1147.60, 5000.00],
                     [ 6.78903089E+00,  3.03598162E-02, -1.21262050E-05,
                       2.19945025E-09, -1.50289312E-13, -1.91057969E+04,
                      -1.17329103E+01])),
        transport=gas_transport(geom='nonlinear',
                                diam=5.415,
                                well_depth=348.415))

species(name=u'CH4(142)',
        atoms='H:4 C:1',
        thermo=(NASA([100.00, 1084.12],
                     [ 4.20541524E+00, -5.35557362E-03,  2.51123265E-05,
                      -2.13762843E-08,  5.97523937E-12, -1.01619433E+04,
                      -9.21279283E-01]),
                NASA([1084.12, 5000.00],
                     [ 9.08265721E-01,  1.14540858E-02, -4.57173828E-06,
                       8.29191671E-10, -5.66314895E-14, -9.71997444E+03,
                       1.39930944E+01])),
        transport=gas_transport(geom='nonlinear',
                                diam=3.746,
                                well_depth=141.4,
                                polar=2.6,
                                rot_relax=13.0))

species(name=u'C8H12(151)',
        atoms='H:12 C:8',
        thermo=(NASA([100.00, 1005.34],
                     [ 1.86706594E-01,  6.87128585E-02, -1.27834364E-05,
                      -3.12867866E-08,  1.65065107E-11,  1.40386710E+04,
                       3.13641644E+01]),
                NASA([1005.34, 5000.00],
                     [ 1.70020327E+01,  3.54850644E-02, -1.34528637E-05,
                       2.47700296E-09, -1.75378433E-13,  8.95581482E+03,
                      -5.83136097E+01])),
        transport=gas_transport(geom='nonlinear',
                                diam=6.146,
                                well_depth=430.747))

species(name=u'C8H12(155)',
        atoms='H:12 C:8',
        thermo=(NASA([100.00, 1002.94],
                     [ 1.69489980E-02,  7.28189377E-02, -2.16585698E-05,
                      -2.40807783E-08,  1.44597041E-11,  1.38562447E+04,
                       3.07679077E+01]),
                NASA([1002.94, 5000.00],
                     [ 1.77276883E+01,  3.45993801E-02, -1.29781828E-05,
                       2.37500136E-09, -1.67643536E-13,  8.67334638E+03,
                      -6.28559377E+01])),
        transport=gas_transport(geom='nonlinear',
                                diam=6.098,
                                well_depth=423.433))

species(name=u'C6H12(173)',
        atoms='H:12 C:6',
        thermo=(NASA([100.00, 1018.92],
                     [ 1.21827324E+00,  4.88303598E-02,  8.49335826E-06,
                      -3.91899735E-08,  1.67107196E-11, -8.55522126E+03,
                       2.43074946E+01]),
                NASA([1018.92, 5000.00],
                     [ 1.16698119E+01,  3.59250755E-02, -1.39120664E-05,
                       2.55991991E-09, -1.79822160E-13, -1.21450086E+04,
                      -3.34751762E+01])),
        transport=gas_transport(geom='nonlinear',
                                diam=5.884,
                                well_depth=388.064))

species(name=u'C8H12(185)',
        atoms='H:12 C:8',
        thermo=(NASA([100.00, 966.56],
                     [-1.28183216E-01,  7.35572918E-02, -1.44333618E-05,
                      -3.89698452E-08,  2.17299794E-11,  1.04422483E+04,
                       2.89601759E+01]),
                NASA([966.56, 5000.00],
                     [ 2.02785414E+01,  2.99584765E-02, -1.01704686E-05,
                       1.81720743E-09, -1.29537878E-13,  4.58909334E+03,
                      -7.86679341E+01])),
        transport=gas_transport(geom='nonlinear',
                                diam=6.171,
                                well_depth=433.47))

species(name=u'C6H12(190)',
        atoms='H:12 C:6',
        thermo=(NASA([100.00, 1083.88],
                     [ 1.36789859E+00,  4.60332170E-02,  1.03872042E-05,
                      -3.61548644E-08,  1.41144370E-11, -9.21215455E+03,
                       2.36685346E+01]),
                NASA([1083.88, 5000.00],
                     [ 1.07762218E+01,  3.82405519E-02, -1.60946813E-05,
                       3.05489613E-09, -2.16276948E-13, -1.28334192E+04,
                      -2.97757608E+01])),
        transport=gas_transport(geom='nonlinear',
                                diam=5.876,
                                well_depth=387.836))

species(name=u'C8H12(201)',
        atoms='H:12 C:8',
        thermo=(NASA([100.00, 969.72],
                     [ 3.93158683E-02,  6.94810364E-02, -5.67867310E-06,
                      -4.59940342E-08,  2.36868668E-11,  1.06247696E+04,
                       2.95643335E+01]),
                NASA([969.72, 5000.00],
                     [ 1.95488470E+01,  3.08499781E-02, -1.06480761E-05,
                       1.91982703E-09, -1.37319493E-13,  4.87359776E+03,
                      -7.41022237E+01])),
        transport=gas_transport(geom='nonlinear',
                                diam=6.217,
                                well_depth=440.767))

species(name=u'C6H12(206)',
        atoms='H:12 C:6',
        thermo=(NASA([100.00, 1839.14],
                     [ 7.39766525E-01,  6.35836379E-02, -3.85035731E-05,
                       1.16726754E-08, -1.43915861E-12, -9.53996498E+03,
                       2.35193792E+01]),
                NASA([1839.14, 5000.00],
                     [ 1.56639911E+01,  3.11245214E-02, -1.20299805E-05,
                       2.07631491E-09, -1.34696441E-13, -1.50295162E+04,
                      -5.75746881E+01])),
        transport=gas_transport(geom='nonlinear',
                                diam=5.925,
                                well_depth=395.365))

species(name=u'C4H8(217)',
        atoms='H:8 C:4',
        thermo=(NASA([100.00, 1061.33],
                     [ 2.52504770E+00,  2.64752782E-02,  7.08359238E-06,
                      -2.07731462E-08,  8.00430055E-12, -4.02607130E+03,
                       1.28857274E+01]),
                NASA([1061.33, 5000.00],
                     [ 6.48672669E+00,  2.49943921E-02, -9.83283171E-06,
                       1.79343299E-09, -1.24008235E-13, -5.62452310E+03,
                      -1.00316397E+01])),
        transport=gas_transport(geom='nonlinear',
                                diam=5.238,
                                well_depth=351.146))

species(name=u'C6H10(218)',
        atoms='H:10 C:6',
        thermo=(NASA([100.00, 1020.63],
                     [ 9.97427413E-01,  5.59777045E-02, -2.05880600E-05,
                      -1.17182304E-08,  8.13452041E-12,  6.30749855E+03,
                       2.38941836E+01]),
                NASA([1020.63, 5000.00],
                     [ 1.33828218E+01,  2.83661253E-02, -1.07663110E-05,
                       1.95749020E-09, -1.36589418E-13,  2.68926840E+03,
                      -4.14511818E+01])),
        transport=gas_transport(geom='nonlinear',
                                diam=5.673,
                                well_depth=388.08))

species(name=u'C6H12(226)',
        atoms='H:12 C:6',
        thermo=(NASA([100.00, 3144.72],
                     [ 1.62486600E+00,  5.81706891E-02, -2.94074668E-05,
                       6.41453677E-09, -5.27511383E-13, -9.95070725E+03,
                       2.05730324E+01]),
                NASA([3144.72, 5000.00],
                     [ 2.63049846E+01,  2.09689465E-02, -8.89163385E-06,
                       1.47783715E-09, -8.83519412E-14, -2.26006402E+04,
                      -1.22203751E+02])),
        transport=gas_transport(geom='nonlinear',
                                diam=5.876,
                                well_depth=387.836))

species(name=u'S(276)',
        atoms='H:12 C:10',
        thermo=(NASA([100.00, 941.51],
                     [-1.21149255E+00,  9.04616845E-02, -1.64537931E-05,
                      -5.96964814E-08,  3.41154317E-11,  3.01860445E+04,
                       3.39132204E+01]),
                NASA([941.51, 5000.00],
                     [ 2.87219515E+01,  2.36181688E-02, -6.07451223E-06,
                       1.01153867E-09, -7.58168899E-14,  2.18756388E+04,
                      -1.22894212E+02])),
        transport=gas_transport(geom='nonlinear',
                                diam=6.493,
                                well_depth=484.866))

species(name=u'C8H12(400)',
        atoms='H:12 C:8',
        thermo=(NASA([100.00, 966.56],
                     [-1.28183216E-01,  7.35572918E-02, -1.44333618E-05,
                      -3.89698452E-08,  2.17299794E-11,  1.04422483E+04,
                       2.89601759E+01]),
                NASA([966.56, 5000.00],
                     [ 2.02785414E+01,  2.99584765E-02, -1.01704686E-05,
                       1.81720743E-09, -1.29537878E-13,  4.58909334E+03,
                      -7.86679341E+01])),
        transport=gas_transport(geom='nonlinear',
                                diam=6.171,
                                well_depth=433.47))

species(name=u'S(444)',
        atoms='H:14 C:10',
        thermo=(NASA([100.00, 988.70],
                     [-1.28102885E+00,  9.73401935E-02, -3.96908570E-05,
                      -2.28883979E-08,  1.70599250E-11,  2.01333918E+04,
                       3.80613736E+01]),
                NASA([988.70, 5000.00],
                     [ 2.35618068E+01,  3.86218834E-02, -1.40063814E-05,
                       2.54246809E-09, -1.80004061E-13,  1.31784885E+04,
                      -9.18377566E+01])),
        transport=gas_transport(geom='nonlinear',
                                diam=6.588,
                                well_depth=467.343))

species(name=u'S(448)',
        atoms='H:14 C:10',
        thermo=(NASA([100.00, 986.06],
                     [-1.44909215E+00,  1.01424899E-01, -4.84844562E-05,
                      -1.57983685E-08,  1.50673204E-11,  1.99508936E+04,
                       3.67659825E+01]),
                NASA([986.06, 5000.00],
                     [ 2.42859453E+01,  3.77392366E-02, -1.35336379E-05,
                       2.44095589E-09, -1.72311717E-13,  1.28965094E+04,
                      -9.70649724E+01])),
        transport=gas_transport(geom='nonlinear',
                                diam=6.543,
                                well_depth=460.228))

species(name=u'C5H8c(565)',
        atoms='H:8 C:5',
        thermo=(NASA([100.00, 1004.86],
                     [ 1.98273955E+00,  3.49998332E-02,  6.98515281E-06,
                      -3.05031334E-08,  1.32246652E-11,  6.96521034E+03,
                       1.60818191E+01]),
                NASA([1004.86, 5000.00],
                     [ 1.01246420E+01,  2.42323877E-02, -9.24886971E-06,
                       1.70115950E-09, -1.20059732E-13,  4.23624320E+03,
                      -2.86745770E+01])),
        transport=gas_transport(geom='nonlinear',
                                diam=5.354,
                                well_depth=369.973))

species(name=u'C7H10(922)',
        atoms='H:10 C:7',
        thermo=(NASA([100.00, 964.43],
                     [ 7.07394418E-01,  5.73829080E-02, -2.46592422E-06,
                      -4.14180875E-08,  2.10721488E-11,  1.33220526E+04,
                       2.42540611E+01]),
                NASA([964.43, 5000.00],
                     [ 1.71631874E+01,  2.51951360E-02, -8.49312953E-06,
                       1.52032043E-09, -1.08853382E-13,  8.47079678E+03,
                      -6.32347231E+01])),
        transport=gas_transport(geom='nonlinear',
                                diam=5.903,
                                well_depth=423.815))

species(name=u'S(1122)',
        atoms='H:14 C:8',
        thermo=(NASA([100.00, 999.32],
                     [-8.27296041E-02,  7.33926821E-02, -9.70961131E-06,
                      -3.77339221E-08,  1.91784792E-11, -2.27794802E+03,
                       3.16114703E+01]),
                NASA([999.32, 5000.00],
                     [ 1.74908493E+01,  3.99675318E-02, -1.49508424E-05,
                       2.72972667E-09, -1.92366979E-13, -7.63361766E+03,
                      -6.23819175E+01])),
        transport=gas_transport(geom='nonlinear',
                                diam=6.384,
                                well_depth=433.303))

species(name=u'C5H8(1190)',
        atoms='H:8 C:5',
        thermo=(NASA([100.00, 1049.25],
                     [ 2.01062155E+00,  3.15407187E-02,  2.07789480E-05,
                      -4.44088985E-08,  1.72419112E-11,  7.01383967E+03,
                       1.65768346E+01]),
                NASA([1049.25, 5000.00],
                     [ 1.14809937E+01,  2.45641673E-02, -1.08867259E-05,
                       2.16707025E-09, -1.59145781E-13,  3.42314914E+03,
                      -3.72078866E+01])),
        transport=gas_transport(geom='nonlinear',
                                diam=5.404,
                                well_depth=377.736))

species(name=u'S(1570)',
        atoms='H:12 C:8',
        thermo=(NASA([100.00, 996.08],
                     [-1.55053669E-01,  7.76017612E-02, -3.37453774E-05,
                      -1.34614673E-08,  1.13199121E-11,  8.65449277E+03,
                       2.81065170E+01]),
                NASA([996.08, 5000.00],
                     [ 1.82444854E+01,  3.35255314E-02, -1.22645825E-05,
                       2.20885957E-09, -1.54520909E-13,  3.51010846E+03,
                      -6.80119980E+01])),
        transport=gas_transport(geom='nonlinear',
                                diam=6.243,
                                well_depth=443.592))

species(name=u'S(1579)',
        atoms='H:14 C:8',
        thermo=(NASA([100.00, 1111.76],
                     [-2.74084650E-01,  8.18720491E-02, -4.29336904E-05,
                       2.91275398E-09,  3.36325078E-12, -4.62644076E+03,
                       3.06228557E+01]),
                NASA([1111.76, 5000.00],
                     [ 1.58812983E+01,  4.31906830E-02, -1.69782952E-05,
                       3.07968180E-09, -2.11685240E-13, -9.42028499E+03,
                      -5.44334045E+01])),
        transport=gas_transport(geom='nonlinear',
                                diam=6.448,
                                well_depth=443.042))

species(name=u'S(1644)',
        atoms='H:12 C:8',
        thermo=(NASA([100.00, 996.08],
                     [-1.55054420E-01,  7.76017702E-02, -3.37454095E-05,
                      -1.34614252E-08,  1.13198940E-11,  8.83061944E+03,
                       2.79505218E+01]),
                NASA([996.08, 5000.00],
                     [ 1.82444884E+01,  3.35255263E-02, -1.22645795E-05,
                       2.20885887E-09, -1.54520851E-13,  3.68623383E+03,
                      -6.81680129E+01])),
        transport=gas_transport(geom='nonlinear',
                                diam=6.243,
                                well_depth=443.592))

species(name=u'S(2792)',
        atoms='H:14 C:8',
        thermo=(NASA([100.00, 996.85],
                     [-2.51936173E-01,  7.74918354E-02, -1.85584564E-05,
                      -3.05650944E-08,  1.71489431E-11, -2.46039773E+03,
                       3.10132649E+01]),
                NASA([996.85, 5000.00],
                     [ 1.82159670E+01,  3.90829101E-02, -1.44768342E-05,
                       2.62789418E-09, -1.84646738E-13, -7.91590818E+03,
                      -6.69213086E+01])),
        transport=gas_transport(geom='nonlinear',
                                diam=6.336,
                                well_depth=426.003))

species(name=u'S(3302)',
        atoms='H:14 C:8',
        thermo=(NASA([100.00, 1014.22],
                     [-3.89441130E-02,  7.36449027E-02, -1.44124551E-05,
                      -3.01944539E-08,  1.58814378E-11, -3.75348893E+03,
                       3.03232534E+01]),
                NASA([1014.22, 5000.00],
                     [ 1.65036525E+01,  4.14931497E-02, -1.58009374E-05,
                       2.88709330E-09, -2.02378768E-13, -8.81100544E+03,