units(length='cm', time='s', quantity='mol', act_energy='kcal/mol')

ideal_gas(name='gas',
          elements="H D T C Ci O Oi N Ne Ar He Si S Cl X",
          species="""n-heptane   Ar          He          Ne
                     N2          C2H4(2)     C4H8-1(3)   C4H8-2(4)
                     C4H6(7)     C6H8(9)     C3H6(24)    H2(47)
                     C6H10(183)  C8H12(184)  C8H12(333)  C8H12(553)
                     C5H8c(596)  C8H12(651)  C6H10(726)  S(752)
                     S(754)      C6H10(925)  C6H10(926)  C5H8g(931)
                     CH4(1250)   S(1271)     S(1273)     C4H8(1292)
                     C2H6(1297)  S(1644)     S(1658)     S(1674)
                     S(1871)     S(1976)     S(2027)     S(2035)
                     S(2098)     S(2107)     S(2118)     S(2133)
                     S(2885)     S(4214)     S(4225)     S(4427)
                     S(4451)     S(4473)""",
          reactions='gas-*',
          initial_state=state(temperature=300.0, pressure=OneAtm))

ideal_interface(name='surface1',
                elements="H D T C Ci O Oi N Ne Ar He Si S Cl X",
                species="""X(1)        HX(5)       C2H3X(27)   allylX(28)
                          CH3X(29)    C2H5X(30)   C4H7X(31)   C4H7X(32)
                          C4H7X(33)   C4H7X(34)   C3H5X(35)   C4H7X(36)
                          C4H7X(37)   C4H5X(56)   C4H5X(57)   C6H9X(65)
                          C6H9X(66)   C8H11X(76)  C8H11X(77)  C6H9X(80)
                          C8H11X(85)  C8H11X(86)  C6H7X(94)   C6H7X(95)
                          C6H7X(96)   SX(109)     SX(145)     C6H7X(159)
                          C6H9X(175)  C5H7X(177)  SX(202)     C6H9X(203)
                          SX(204)     SX(205)     SX(206)     SX(207)
                          SX(208)     SX(230)     SX(232)     SX(234)
                          SX(270)     C7H9X(284)  SX(296)     C7H9X(327)
                          C3H5X(346)  C4H7X(347)  SX(348)     C6H9X(349)
                          SX(350)     SX(351)     SX(352)     SX(353)
                          SX(416)     SX(421)     SX(422)     SX(436)
                          SX(441)     SX(442)     SX(463)     SX(464)
                          SX(476)     SX(477)     SX(490)     SX(491)
                          SX(504)     SX(505)     SX(508)     C6H9X(536)
                          SX(548)     SX(569)     C5H7X(570)  C5H7X(591)
                          SX(610)     SX(622)     C6H9X(623)  SX(645)
                          SX(646)     SX(657)     SX(659)     SX(682)
                          SX(683)     SX(695)     SX(698)     C6H9X(712)
                          SX(728)     C5H7X(991)  SX(1027)    SX(1028)
                          SX(1138)    SX(1139)    SX(1140)    SX(1253)
                          SX(1298)    SX(1302)    SX(1436)    SX(1437)
                          SX(1565)    SX(1589)    SX(1591)    SX(1600)
                          SX(1604)    SX(1605)    SX(1634)    SX(1659)
                          SX(1661)    SX(1665)    SX(1666)    SX(1697)
                          SX(1789)    SX(1790)    SX(1856)    SX(1857)
                          SX(1889)    SX(1906)    SX(1923)    SX(1941)
                          SX(1966)    SX(1972)    SX(1973)    SX(2135)
                          SX(2870)    SX(2874)    SX(2875)    SX(2967)
                          SX(3135)    SX(3137)    SX(3353)    SX(3417)
                          SX(3528)    SX(3529)    SX(3537)    SX(3538)
                          SX(3540)    SX(3545)    SX(3552)    SX(3569)
                          SX(3570)    SX(3572)    SX(3576)    SX(3583)
                          SX(3648)    SX(3649)    SX(3741)    SX(3746)
                          SX(3753)    SX(3767)    SX(3768)    SX(3769)
                          SX(3780)    SX(3781)    SX(3802)    SX(3804)
                          SX(4124)    SX(4125)    SX(4126)    SX(4127)
                          SX(4128)    SX(4131)    SX(4150)    SX(4256)
                          SX(4293)    SX(4294)    SX(4297)    SX(4330)
                          SX(4342)    SX(4413)    SX(4417)    SX(4418)
                          SX(4558)    SX(4560)    SX(4694)    SX(4715)
                          SX(4747)    SX(4748)    SX(4749)    SX(4750)
                          SX(4786)    SX(4802)    SX(4879)    SX(5009)
                          SX(5042)    SX(5043)    SX(5183)    SX(5256)
                          SX(5258)    SX(5259)    SX(5260)    SX(5261)
                          SX(5283)    SX(5439)    SX(5457)    SX(5527)
                          SX(5552)    SX(5590)    SX(5709)    SX(5711)
                          SX(5715)    SX(5786)    SX(5787)    SX(5789)
                          SX(5831)    SX(5940)    SX(6078)    SX(6079)
                          SX(6081)    SX(6129)    SX(6130)    SX(6242)
                          SX(6244)    SX(6246)    SX(6249)    SX(6271)
                          SX(6299)    SX(6318)    SX(6319)    SX(6320)
                          SX(6321)    SX(6347)    SX(6363)    SX(6377)
                          SX(6378)    SX(6398)    SX(6409)    SX(6861)
                          SX(6865)    SX(6870)    SX(6889)    SX(6914)
                          SX(6915)    SX(6918)    SX(6930)    SX(6931)
                          SX(6942)    SX(6946)    SX(6959)    SX(6961)
                          SX(6962)    SX(6963)    SX(7187)    SX(7188)
                          SX(7504)    SX(7545)    SX(7593)    SX(7594)
                          SX(7699)    SX(7743)    SX(7834)    SX(8004)
                          SX(8005)    SX(8007)    SX(8039)    SX(8041)
                          SX(8043)    SX(8045)    SX(8069)    SX(8077)
                          SX(8094)    SX(8095)    SX(8105)    SX(8126)
                          SX(8137)    SX(8138)    SX(8191)    SX(8192)
                          SX(8201)    SX(8209)    SX(8214)    SX(8215)
                          SX(8240)    SX(8243)    SX(8349)    SX(8371)
                          SX(8400)""",
                site_density=2.72e-09,
                phases="gas",
          reactions='surface1-*',
                initial_state=state(temperature=300.0, pressure=OneAtm))

#-------------------------------------------------------------------------------
# Element data
#-------------------------------------------------------------------------------

element(symbol=u'X', atomic_mass=195.083)
element(symbol=u'Ci', atomic_mass=13.003)
element(symbol=u'D', atomic_mass=2.014)
element(symbol=u'Oi', atomic_mass=18.0)
element(symbol=u'T', atomic_mass=3.016)
#-------------------------------------------------------------------------------
# Species data
#-------------------------------------------------------------------------------

species(name=u'n-heptane',
        atoms='H:16 C:7',
        thermo=(NASA([100.00, 1262.73],
                     [-2.91681405E-03,  7.69373649E-02, -3.48025563E-05,
                       1.86095180E-09,  2.01573617E-12, -2.57829342E+04,
                       3.00312148E+01]),
                NASA([1262.73, 5000.00],
                     [ 1.38377915E+01,  4.85945016E-02, -1.95474548E-05,
                       3.52837178E-09, -2.39064676E-13, -3.05141556E+04,
                      -4.48642836E+01])))

species(name=u'Ar',
        atoms='Ar:1',
        thermo=(NASA([200.00, 1000.00],
                     [ 2.50000000E+00,  0.00000000E+00,  0.00000000E+00,
                       0.00000000E+00,  0.00000000E+00, -7.45375000E+02,
                       4.37967000E+00]),
                NASA([1000.00, 6000.00],
                     [ 2.50000000E+00,  0.00000000E+00,  0.00000000E+00,
                       0.00000000E+00,  0.00000000E+00, -7.45375000E+02,
                       4.37967000E+00])))

species(name=u'He',
        atoms='He:1',
        thermo=(NASA([200.00, 1000.00],
                     [ 2.50000000E+00,  0.00000000E+00,  0.00000000E+00,
                       0.00000000E+00,  0.00000000E+00, -7.45375000E+02,
                       9.28724000E-01]),
                NASA([1000.00, 6000.00],
                     [ 2.50000000E+00,  0.00000000E+00,  0.00000000E+00,
                       0.00000000E+00,  0.00000000E+00, -7.45375000E+02,
                       9.28724000E-01])))

species(name=u'Ne',
        atoms='Ne:1',
        thermo=(NASA([200.00, 1000.00],
                     [ 2.50000000E+00,  0.00000000E+00,  0.00000000E+00,
                       0.00000000E+00,  0.00000000E+00, -7.45375000E+02,
                       3.35532000E+00]),
                NASA([1000.00, 6000.00],
                     [ 2.50000000E+00,  0.00000000E+00,  0.00000000E+00,
                       0.00000000E+00,  0.00000000E+00, -7.45375000E+02,
                       3.35532000E+00])))

species(name=u'N2',
        atoms='N:2',
        thermo=(NASA([200.00, 1000.00],
                     [ 3.53101000E+00, -1.23661000E-04, -5.02999000E-07,
                       2.43531000E-09, -1.40881000E-12, -1.04698000E+03,
                       2.96747000E+00]),
                NASA([1000.00, 6000.00],
                     [ 2.95258000E+00,  1.39690000E-03, -4.92632000E-07,
                       7.86010000E-11, -4.60755000E-15, -9.23949000E+02,
                       5.87189000E+00])))

species(name=u'C2H4(2)',
        atoms='H:4 C:2',
        thermo=(NASA([100.00, 979.36],
                     [ 3.97471606E+00, -4.75844285E-03,  4.16783770E-05,
                      -4.51392516E-08,  1.54224761E-11,  4.91540746E+03,
                       3.62430844E+00]),
                NASA([979.36, 5000.00],
                     [ 3.55660610E+00,  1.10627464E-02, -4.17019079E-06,
                       7.85586770E-10, -5.70060829E-14,  4.32046489E+03,
                       2.17719479E+00])))

species(name=u'C4H8-1(3)',
        atoms='H:8 C:4',
        thermo=(NASA([100.00, 1007.28],
                     [ 2.58772906E+00,  2.32777969E-02,  1.93412349E-05,
                      -3.55496333E-08,  1.36906009E-11, -1.91872926E+03,
                       1.45750618E+01]),
                NASA([1007.28, 5000.00],
                     [ 7.20517168E+00,  2.36361568E-02, -9.03150028E-06,
                       1.65392666E-09, -1.16019260E-13, -3.79733937E+03,
                      -1.24426257E+01])))

species(name=u'C4H8-2(4)',
        atoms='H:8 C:4',
        thermo=(NASA([100.00, 1157.79],
                     [ 2.51998327E+00,  2.76812799E-02,  9.43783469E-07,
                      -1.25009101E-08,  4.67144666E-12, -3.34374767E+03,
                       1.30195623E+01]),
                NASA([1157.79, 5000.00],
                     [ 6.04225708E+00,  2.60072350E-02, -1.04843374E-05,
                       1.90880922E-09, -1.30600505E-13, -4.86276511E+03,
                      -7.52715109E+00])))

species(name=u'C4H6(7)',
        atoms='H:6 C:4',
        thermo=(NASA([100.00, 946.05],
                     [ 2.80599310E+00,  1.02584471E-02,  6.17260255E-05,
                      -9.01642687E-08,  3.59116961E-11,  1.16584972E+04,
                       1.20621434E+01]),
                NASA([946.05, 5000.00],
                     [ 1.24693720E+01,  1.00553901E-02, -2.41206872E-06,
                       4.57077303E-10, -3.93160571E-14,  8.01077795E+03,
                      -4.36374720E+01])))

species(name=u'C6H8(9)',
        atoms='H:8 C:6',
        thermo=(NASA([100.00, 941.22],
                     [ 1.38427980E+00,  4.14411503E-02,  1.94287417E-05,
                      -6.16688700E-08,  2.86503633E-11,  1.76317461E+04,
                       1.93257509E+01]),
                NASA([941.22, 5000.00],
                     [ 1.69619680E+01,  1.57221707E-02, -4.10118367E-06,
                       6.95736344E-10, -5.26521484E-14,  1.29061672E+04,
                      -6.44097553E+01])))

species(name=u'C3H6(24)',
        atoms='H:6 C:3',
        thermo=(NASA([100.00, 983.75],
                     [ 3.31912102E+00,  8.17958674E-03,  3.34736123E-05,
                      -4.36193684E-08,  1.58213364E-11,  7.49325328E+02,
                       9.54025058E+00]),
                NASA([983.75, 5000.00],
                     [ 5.36755173E+00,  1.70743019E-02, -6.35107626E-06,
                       1.16619529E-09, -8.27620279E-14, -4.87138326E+02,
                      -4.54467529E+00])))

species(name=u'H2(47)',
        atoms='H:2',
        thermo=(NASA([100.00, 1959.08],
                     [ 3.43536412E+00,  2.12710353E-04, -2.78625043E-07,
                       3.40267167E-10, -7.76031998E-14, -1.03135984E+03,
                      -3.90841732E+00]),
                NASA([1959.08, 5000.00],
                     [ 2.78816583E+00,  5.87640942E-04,  1.59010417E-07,
                      -5.52739026E-11,  4.34310984E-15, -5.96144270E+02,
                       1.12732655E-01])))

species(name=u'C6H10(183)',
        atoms='H:10 C:6',
        thermo=(NASA([100.00, 1020.63],
                     [ 9.97427413E-01,  5.59777045E-02, -2.05880600E-05,
                      -1.17182304E-08,  8.13452041E-12,  6.30749855E+03,
                       2.38941836E+01]),
                NASA([1020.63, 5000.00],
                     [ 1.33828218E+01,  2.83661253E-02, -1.07663110E-05,
                       1.95749020E-09, -1.36589418E-13,  2.68926840E+03,
                      -4.14511818E+01])))

species(name=u'C8H12(184)',
        atoms='H:12 C:8',
        thermo=(NASA([100.00, 1002.94],
                     [ 1.69489980E-02,  7.28189377E-02, -2.16585698E-05,
                      -2.40807783E-08,  1.44597041E-11,  1.38562447E+04,
                       3.07679077E+01]),
                NASA([1002.94, 5000.00],
                     [ 1.77276883E+01,  3.45993801E-02, -1.29781828E-05,
                       2.37500136E-09, -1.67643536E-13,  8.67334638E+03,
                      -6.28559377E+01])))

species(name=u'C8H12(333)',
        atoms='H:12 C:8',
        thermo=(NASA([100.00, 1016.52],
                     [-1.10429280E-01,  7.70814645E-02, -3.47833140E-05,
                      -1.00302869E-08,  9.42640217E-12,  1.21750142E+04,
                       2.97645889E+01]),
                NASA([1016.52, 5000.00],
                     [ 1.75623558E+01,  3.50022757E-02, -1.32158186E-05,
                       2.40320183E-09, -1.68059077E-13,  7.16317806E+03,
                      -6.27651255E+01])))

species(name=u'C8H12(553)',
        atoms='H:12 C:8',
        thermo=(NASA([100.00, 1005.34],
                     [ 1.86706594E-01,  6.87128585E-02, -1.27834364E-05,
                      -3.12867866E-08,  1.65065107E-11,  1.40386710E+04,
                       3.13641644E+01]),
                NASA([1005.34, 5000.00],
                     [ 1.70020327E+01,  3.54850644E-02, -1.34528637E-05,
                       2.47700296E-09, -1.75378433E-13,  8.95581482E+03,
                      -5.83136097E+01])))

species(name=u'C5H8c(596)',
        atoms='H:8 C:5',
        thermo=(NASA([100.00, 1004.86],
                     [ 1.98273955E+00,  3.49998332E-02,  6.98515281E-06,
                      -3.05031334E-08,  1.32246652E-11,  6.96521034E+03,
                       1.60818191E+01]),
                NASA([1004.86, 5000.00],
                     [ 1.01246420E+01,  2.42323877E-02, -9.24886971E-06,
                       1.70115950E-09, -1.20059732E-13,  4.23624320E+03,
                      -2.86745770E+01])))

species(name=u'C8H12(651)',
        atoms='H:12 C:8',
        thermo=(NASA([100.00, 1018.55],
                     [ 6.01063084E-02,  7.29655393E-02, -2.58705028E-05,
                      -1.72899943E-08,  1.14983085E-11,  1.23574076E+04,
                       3.03580987E+01]),
                NASA([1018.55, 5000.00],
                     [ 1.68364676E+01,  3.58886254E-02, -1.36909925E-05,
                       2.50533844E-09, -1.75806316E-13,  7.44565539E+03,
                      -5.82216573E+01])))

species(name=u'C6H10(726)',
        atoms='H:10 C:6',
        thermo=(NASA([100.00, 1036.89],
                     [ 1.50874221E+00,  4.27939676E-02,  1.00407781E-05,
                      -3.76644958E-08,  1.56320088E-11,  7.74480595E+03,
                       2.33493905E+01]),
                NASA([1036.89, 5000.00],
                     [ 1.16601041E+01,  3.10397815E-02, -1.26024374E-05,
                       2.38495409E-09, -1.70150727E-13,  4.16633351E+03,
                      -3.30972272E+01])))

species(name=u'S(752)',
        atoms='H:18 C:12',
        thermo=(NASA([100.00, 1477.97],
                     [-3.19630903E+00,  1.37492248E-01, -1.07533491E-04,
                       4.32751920E-08, -6.98174862E-12,  1.46955257E+04,
                       4.93451940E+01]),
                NASA([1477.97, 5000.00],
                     [ 2.90787822E+01,  5.01436773E-02, -1.88841738E-05,
                       3.28877739E-09, -2.18103615E-13,  5.15506947E+03,
                      -1.18972809E+02])))

species(name=u'S(754)',
        atoms='H:18 C:12',
        thermo=(NASA([100.00, 1095.01],
                     [-2.74660311E+00,  1.29765084E-01, -8.38469326E-05,
                       1.76910140E-08,  2.07998997E-12,  1.63622171E+04,
                       4.84763299E+01]),
                NASA([1095.01, 5000.00],
                     [ 2.54000781E+01,  5.57453621E-02, -2.19004326E-05,
                       3.99438837E-09, -2.76438212E-13,  8.47151992E+03,
                      -9.77534119E+01])))

species(name=u'C6H10(925)',
        atoms='H:10 C:6',
        thermo=(NASA([100.00, 1020.63],
                     [ 9.97427413E-01,  5.59777045E-02, -2.05880600E-05,
                      -1.17182304E-08,  8.13452041E-12,  6.30749855E+03,
                       2.38941836E+01]),
                NASA([1020.63, 5000.00],
                     [ 1.33828218E+01,  2.83661253E-02, -1.07663110E-05,
                       1.95749020E-09, -1.36589418E-13,  2.68926840E+03,
                      -4.14511818E+01])))

species(name=u'C6H10(926)',
        atoms='H:10 C:6',
        thermo=(NASA([100.00, 1020.63],
                     [ 9.97427413E-01,  5.59777045E-02, -2.05880600E-05,
                      -1.17182304E-08,  8.13452041E-12,  2.84333919E+03,
                       1.95659973E+01]),
                NASA([1020.63, 5000.00],
                     [ 1.33828218E+01,  2.83661253E-02, -1.07663110E-05,
                       1.95749020E-09, -1.36589418E-13, -7.74890955E+02,
                      -4.57793681E+01])))

species(name=u'C5H8g(931)',
        atoms='H:8 C:5',
        thermo=(NASA([100.00, 1049.25],
                     [ 2.01062155E+00,  3.15407187E-02,  2.07789480E-05,
                      -4.44088985E-08,  1.72419112E-11,  7.01383967E+03,
                       1.65768346E+01]),
                NASA([1049.25, 5000.00],
                     [ 1.14809937E+01,  2.45641673E-02, -1.08867259E-05,
                       2.16707025E-09, -1.59145781E-13,  3.42314914E+03,
                      -3.72078866E+01])))

species(name=u'CH4(1250)',
        atoms='H:4 C:1',
        thermo=(NASA([100.00, 1084.12],
                     [ 4.20541524E+00, -5.35557362E-03,  2.51123265E-05,
                      -2.13762843E-08,  5.97523937E-12, -1.01619433E+04,
                      -9.21279283E-01]),
                NASA([1084.12, 5000.00],
                     [ 9.08265721E-01,  1.14540858E-02, -4.57173828E-06,
                       8.29191671E-10, -5.66314895E-14, -9.71997444E+03,
                       1.39930944E+01])))

species(name=u'S(1271)',
        atoms='H:14 C:9',
        thermo=(NASA([100.00, 1127.97],
                     [-1.06224459E+00,  9.82688301E-02, -6.90079455E-05,
                       2.10351781E-08, -1.31458264E-12,  7.68752408E+03,
                       3.37868611E+01]),
                NASA([1127.97, 5000.00],
                     [ 1.95370073E+01,  4.18802743E-02, -1.61766395E-05,
                       2.90484030E-09, -1.98507333E-13,  1.98059854E+03,
                      -7.27712642E+01])))

species(name=u'S(1273)',
        atoms='H:14 C:9',
        thermo=(NASA([100.00, 1063.15],
                     [-8.82236922E-01,  9.34312223E-02, -5.41013563E-05,
                       5.02935019E-09,  4.39043850E-12,  9.36642700E+03,
                       3.45985261E+01]),
                NASA([1063.15, 5000.00],
                     [ 1.91979043E+01,  4.22928962E-02, -1.63922866E-05,
                       2.98082451E-09, -2.06555285E-13,  3.71720416E+03,
                      -6.99943779E+01])))

species(name=u'C4H8(1292)',
        atoms='H:8 C:4',
        thermo=(NASA([100.00, 1061.33],
                     [ 2.52504770E+00,  2.64752782E-02,  7.08359238E-06,
                      -2.07731462E-08,  8.00430055E-12, -4.02607130E+03,
                       1.28857274E+01]),
                NASA([1061.33, 5000.00],
                     [ 6.48672669E+00,  2.49943921E-02, -9.83283171E-06,
                       1.79343299E-09, -1.24008235E-13, -5.62452310E+03,
                      -1.00316397E+01])))

species(name=u'C2H6(1297)',
        atoms='H:6 C:2',
        thermo=(NASA([100.00, 1012.42],
                     [ 3.72239291E+00,  1.65083841E-03,  3.44175530E-05,
                      -3.76858229E-08,  1.24450657E-11, -1.15575901E+04,
                       4.68247999E+00]),
                NASA([1012.42, 5000.00],
                     [ 2.82848257E+00,  1.73040568E-02, -6.73334245E-06,
                       1.23742024E-09, -8.65676410E-14, -1.19978080E+04,
                       5.93811707E+00])))

species(name=u'S(1644)',
        atoms='H:16 C:10',
        thermo=(NASA([100.00, 1633.05],
                     [-1.57604508E+00,  1.07018994E-01, -7.39823577E-05,
                       2.60588727E-08, -3.71844153E-12,  8.41817266E+03,
                       4.22603632E+01]),
                NASA([1633.05, 5000.00],
                     [ 2.34099448E+01,  4.58181004E-02, -1.77676147E-05,
                       3.11006220E-09, -2.05253464E-13,  2.57511512E+02,
                      -9.05369193E+01])))

species(name=u'S(1658)',
        atoms='H:18 C:12',
        thermo=(NASA([100.00, 1414.95],
                     [-3.06240628E+00,  1.38873015E-01, -1.11441645E-04,
                       4.64778654E-08, -7.81464570E-12,  1.30025006E+04,
                       4.66971244E+01]),
                NASA([1414.95, 5000.00],
                     [ 2.72871748E+01,  5.30761699E-02, -2.04877701E-05,
                       3.62414086E-09, -2.43053598E-13,  4.41386718E+03,
                      -1.10256243E+02])))

species(name=u'S(1674)',
        atoms='H:16 C:10',
        thermo=(NASA([100.00, 1423.43],
                     [-9.64998750E-01,  1.06621285E-01, -7.62914575E-05,
                       2.89181323E-08, -4.60674413E-12,  8.90797740E+03,
                       3.81904336E+01]),
                NASA([1423.43, 5000.00],
                     [ 1.67121827E+01,  5.69463096E-02, -2.39442437E-05,
                       4.40115288E-09, -3.00767956E-13,  3.87554017E+03,
                      -5.33329903E+01])))

species(name=u'S(1871)',
        atoms='H:14 C:9',
        thermo=(NASA([100.00, 1061.03],
                     [-7.05953494E-01,  8.92476594E-02, -4.49538104E-05,
                      -2.53008134E-09,  6.58740302E-12,  9.37244562E+03,
                       3.53274184E+01]),
                NASA([1061.03, 5000.00],
                     [ 1.84448643E+01,  4.32246707E-02, -1.68933500E-05,
                       3.08902389E-09, -2.14802098E-13,  3.83522066E+03,
                      -6.51415480E+01])))

species(name=u'S(1976)',
        atoms='H:18 C:12',
        thermo=(NASA([100.00, 1085.27],
                     [-2.55995993E+00,  1.25355517E-01, -7.38342977E-05,
                       8.97133831E-09,  4.75400473E-12,  1.65205814E+04,
                       4.98876451E+01]),
                NASA([1085.27, 5000.00],
                     [ 2.46396898E+01,  5.66083134E-02, -2.23575480E-05,
                       4.09704750E-09, -2.84583976E-13,  8.76155834E+03,
                      -9.21079824E+01])))

species(name=u'S(2027)',
        atoms='H:16 C:10',
        thermo=(NASA([100.00, 1289.14],
                     [-8.93687957E-01,  1.08666914E-01, -8.19503125E-05,
                       3.37855656E-08, -5.94800249E-12,  7.06551798E+03,
                       3.64479621E+01]),
                NASA([1289.14, 5000.00],
                     [ 1.46119310E+01,  6.05555680E-02, -2.59697615E-05,
                       4.83584916E-09, -3.33869088E-13,  3.06772134E+03,
                      -4.22957851E+01])))

species(name=u'S(2035)',
        atoms='H:18 C:12',
        thermo=(NASA([100.00, 1149.22],
                     [-2.75441754E+00,  1.30448741E-01, -8.96236870E-05,
                       2.60418136E-08, -1.33906525E-12,  1.46895397E+04,
                       4.91026365E+01]),
                NASA([1149.22, 5000.00],
                     [ 2.51303828E+01,  5.60408250E-02, -2.20654283E-05,
                       3.99960024E-09, -2.74485478E-13,  6.78477350E+03,
                      -9.58107752E+01])))

species(name=u'S(2098)',
        atoms='H:12 C:7',
        thermo=(NASA([100.00, 1016.70],
                     [ 3.01260003E-01,  6.93239326E-02, -2.79061455E-05,
                      -1.19417116E-08,  9.27990587E-12, -3.26068174E+02,
                       2.53851511E+01]),
                NASA([1016.70, 5000.00],
                     [ 1.55703568E+01,  3.41922940E-02, -1.28717489E-05,
                       2.32849221E-09, -1.62040961E-13, -4.71997327E+03,
                      -5.48718412E+01])))

species(name=u'S(2107)',
        atoms='H:16 C:10',
        thermo=(NASA([100.00, 1050.23],
                     [-1.54493814E+00,  1.05468860E-01, -5.71170539E-05,
                       2.19606261E-10,  7.09552345E-12,  6.66890775E+03,
                       3.98893243E+01]),
                NASA([1050.23, 5000.00],
                     [ 2.15402055E+01,  4.80180651E-02, -1.85864175E-05,
                       3.38935389E-09, -2.35755397E-13,  1.39391206E+02,
                      -8.06155283E+01])))

species(name=u'S(2118)',
        atoms='H:16 C:10',
        thermo=(NASA([100.00, 1085.29],
                     [-1.70092362E+00,  1.10044958E-01, -7.12157681E-05,
                       1.53374028E-08,  1.69886408E-12,  4.98893716E+03,
                       3.89900867E+01]),
                NASA([1085.29, 5000.00],
                     [ 2.16427124E+01,  4.79853148E-02, -1.85808259E-05,
                       3.36146218E-09, -2.31602558E-13, -1.49004692E+03,
                      -8.20455320E+01])))

species(name=u'S(2133)',
        atoms='H:14 C:8',
        thermo=(NASA([100.00, 1014.29],
                     [-3.67121846E-01,  8.14233516E-02, -3.11110886E-05,
                      -1.65487757E-08,  1.19185866E-11, -3.02333684E+03,
                       3.00035003E+01]),
                NASA([1014.29, 5000.00],
                     [ 1.79686767E+01,  3.98264136E-02, -1.50150741E-05,
                       2.72531006E-09, -1.90287561E-13, -8.32275149E+03,
                      -6.65042554E+01])))

species(name=u'S(2885)',
        atoms='H:14 C:9',
        thermo=(NASA([100.00, 1033.76],
                     [-5.65335332E-01,  8.47310838E-02, -3.08977113E-05,
                      -1.77732609E-08,  1.20851089E-11,  1.12058940E+04,
                       3.63093306E+01]),
                NASA([1033.76, 5000.00],
                     [ 1.85555439E+01,  4.28306026E-02, -1.66554054E-05,
                       3.06539570E-09, -2.15112108E-13,  5.53819046E+03,
                      -6.48648690E+01])))

species(name=u'S(4214)',
        atoms='H:16 C:10',
        thermo=(NASA([100.00, 1046.57],
                     [-1.36838309E+00,  1.01171649E-01, -4.74639258E-05,
                      -8.08582224E-09,  9.61655654E-12,  6.82771591E+03,
                       4.06440936E+01]),
                NASA([1046.57, 5000.00],
                     [ 2.08638824E+01,  4.87446690E-02, -1.89675636E-05,
                       3.47451968E-09, -2.42478055E-13,  3.91839791E+02,
                      -7.61408799E+01])))

species(name=u'S(4225)',
        atoms='H:12 C:7',
        thermo=(NASA([100.00, 1002.43],
                     [ 5.99026497E-01,  6.08356728E-02, -5.37073264E-06,
                      -3.39970972E-08,  1.67132278E-11,  1.51423754E+03,
                       2.71654250E+01]),
                NASA([1002.43, 5000.00],
                     [ 1.50955492E+01,  3.44559544E-02, -1.29812324E-05,
                       2.37752287E-09, -1.67696341E-13, -2.97306291E+03,
                      -5.06926804E+01])))

species(name=u'S(4427)',
        atoms='H:16 C:10',
        thermo=(NASA([100.00, 1121.51],
                     [-1.49948402E+00,  1.05702628E-01, -6.43334490E-05,
                       1.22223035E-08,  1.81984925E-12,  6.71764890E+03,
                       4.02687407E+01]),
                NASA([1121.51, 5000.00],
                     [ 2.05049522E+01,  4.97555935E-02, -1.96449309E-05,
                       3.57408293E-09, -2.46161313E-13,  3.64849048E+02,
                      -7.47314446E+01])))

species(name=u'S(4451)',
        atoms='H:16 C:10',
        thermo=(NASA([100.00, 1520.06],
                     [-1.78840138E+00,  1.11748252E-01, -8.27215632E-05,
                       3.16826722E-08, -4.91135167E-12,  4.89097980E+03,
                       3.98336277E+01]),
                NASA([1520.06, 5000.00],
                     [ 2.33524229E+01,  4.55909039E-02, -1.74373860E-05,
                       3.05043645E-09, -2.02295676E-13, -2.75214452E+03,
                      -9.19840718E+01])))

species(name=u'S(4473)',
        atoms='H:14 C:8',
        thermo=(NASA([100.00, 1061.60],
                     [-2.92612951E-01,  8.13598275E-02, -3.75111418E-05,
                      -5.26741361E-09,  6.79994848E-12, -2.97590642E+03,
                       3.09689353E+01]),
                NASA([1061.60, 5000.00],
                     [ 1.65258066E+01,  4.22160356E-02, -1.64331588E-05,