units(length='cm', time='s', quantity='mol', act_energy='kcal/mol')

ideal_gas(name='gas',
          elements="H D T C Ci O Oi N Ne Ar He Si S Cl X",
          species="""n-heptane   Ar          He          Ne
                     N2          C2H4(2)     C4H8-1(3)   C4H8-2(4)
                     H(6)        C6H12-1(7)  C6H12-2(8)  C6H12-3(9)
                     C6H12(10)   C6H12(11)   H2(190)     C2H6(343)
                     CH4(358)""",
          reactions='gas-*',
          transport='Mix',
          initial_state=state(temperature=300.0, pressure=OneAtm))

ideal_interface(name='surface1',
                elements="H D T C Ci O Oi N Ne Ar He Si S Cl X",
                species="""X(1)        C2H5X(5)    HX(80)      C2H3X(137)
                          CH3X(139)""",
                site_density=2.72e-09,
                phases="gas",
          reactions='surface1-*',
                initial_state=state(temperature=300.0, pressure=OneAtm))

#-------------------------------------------------------------------------------
# Element data
#-------------------------------------------------------------------------------

element(symbol=u'X', atomic_mass=195.083)
element(symbol=u'Ci', atomic_mass=13.003)
element(symbol=u'D', atomic_mass=2.014)
element(symbol=u'Oi', atomic_mass=18.0)
element(symbol=u'T', atomic_mass=3.016)
#-------------------------------------------------------------------------------
# Species data
#-------------------------------------------------------------------------------

species(name=u'n-heptane',
        atoms='H:16 C:7',
        thermo=(NASA([100.00, 1262.75],
                     [-2.93512125E-03,  7.69375610E-02, -3.48031525E-05,
                       1.86160506E-09,  2.01550529E-12, -2.57829334E+04,
                       3.00312819E+01]),
                NASA([1262.75, 5000.00],
                     [ 1.38379971E+01,  4.85941816E-02, -1.95472819E-05,
                       3.52833289E-09, -2.39061569E-13, -3.05142526E+04,
                      -4.48654615E+01])),
        transport=gas_transport(geom='nonlinear',
                                diam=6.366,
                                well_depth=402.997))

species(name=u'Ar',
        atoms='Ar:1',
        thermo=(NASA([200.00, 1000.00],
                     [ 2.50000000E+00,  0.00000000E+00,  0.00000000E+00,
                       0.00000000E+00,  0.00000000E+00, -7.45375000E+02,
                       4.37967000E+00]),
                NASA([1000.00, 6000.00],
                     [ 2.50000000E+00,  0.00000000E+00,  0.00000000E+00,
                       0.00000000E+00,  0.00000000E+00, -7.45375000E+02,
                       4.37967000E+00])),
        transport=gas_transport(geom='atom',
                                diam=3.33,
                                well_depth=136.5))

species(name=u'He',
        atoms='He:1',
        thermo=(NASA([200.00, 1000.00],
                     [ 2.50000000E+00,  0.00000000E+00,  0.00000000E+00,
                       0.00000000E+00,  0.00000000E+00, -7.45375000E+02,
                       9.28724000E-01]),
                NASA([1000.00, 6000.00],
                     [ 2.50000000E+00,  0.00000000E+00,  0.00000000E+00,
                       0.00000000E+00,  0.00000000E+00, -7.45375000E+02,
                       9.28724000E-01])),
        transport=gas_transport(geom='atom',
                                diam=2.576,
                                well_depth=10.2))

species(name=u'Ne',
        atoms='Ne:1',
        thermo=(NASA([200.00, 1000.00],
                     [ 2.50000000E+00,  0.00000000E+00,  0.00000000E+00,
                       0.00000000E+00,  0.00000000E+00, -7.45375000E+02,
                       3.35532000E+00]),
                NASA([1000.00, 6000.00],
                     [ 2.50000000E+00,  0.00000000E+00,  0.00000000E+00,
                       0.00000000E+00,  0.00000000E+00, -7.45375000E+02,
                       3.35532000E+00])),
        transport=gas_transport(geom='atom',
                                diam=3.758,
                                well_depth=148.6))

species(name=u'N2',
        atoms='N:2',
        thermo=(NASA([200.00, 1000.00],
                     [ 3.53101000E+00, -1.23661000E-04, -5.02999000E-07,
                       2.43531000E-09, -1.40881000E-12, -1.04698000E+03,
                       2.96747000E+00]),
                NASA([1000.00, 6000.00],
                     [ 2.95258000E+00,  1.39690000E-03, -4.92632000E-07,
                       7.86010000E-11, -4.60755000E-15, -9.23949000E+02,
                       5.87189000E+00])),
        transport=gas_transport(geom='linear',
                                diam=3.621,
                                well_depth=97.53,
                                polar=1.76,
                                rot_relax=4.0))

species(name=u'C2H4(2)',
        atoms='H:4 C:2',
        thermo=(NASA([100.00, 979.37],
                     [ 3.97469045E+00, -4.75813325E-03,  4.16772624E-05,
                      -4.51377676E-08,  1.54218287E-11,  4.91540855E+03,
                       3.62439976E+00]),
                NASA([979.37, 5000.00],
                     [ 3.55670229E+00,  1.10625819E-02, -4.17009559E-06,
                       7.85564219E-10, -5.70042086E-14,  4.32042473E+03,
                       2.17665377E+00])),
        transport=gas_transport(geom='nonlinear',
                                diam=3.971,
                                well_depth=280.8,
                                rot_relax=1.5))

species(name=u'C4H8-1(3)',
        atoms='H:8 C:4',
        thermo=(NASA([100.00, 1007.28],
                     [ 2.58772978E+00,  2.32777883E-02,  1.93412653E-05,
                      -3.55496729E-08,  1.36906178E-11, -1.91872929E+03,
                       1.45750592E+01]),
                NASA([1007.28, 5000.00],
                     [ 7.20516863E+00,  2.36361619E-02, -9.03150325E-06,
                       1.65392736E-09, -1.16019318E-13, -3.79733809E+03,
                      -1.24426086E+01])),
        transport=gas_transport(geom='nonlinear',
                                diam=5.176,
                                well_depth=357.002,
                                rot_relax=1.0))

species(name=u'C4H8-2(4)',
        atoms='H:8 C:4',
        thermo=(NASA([100.00, 1157.78],
                     [ 2.51999305E+00,  2.76811707E-02,  9.44135366E-07,
                      -1.25013222E-08,  4.67160311E-12, -3.34374810E+03,
                       1.30195268E+01]),
                NASA([1157.78, 5000.00],
                     [ 6.04218222E+00,  2.60073554E-02, -1.04844041E-05,
                       1.90882450E-09, -1.30601743E-13, -4.86273126E+03,
                      -7.52672501E+00])),
        transport=gas_transport(geom='nonlinear',
                                diam=5.289,
                                well_depth=359.053))

species(name=u'H(6)',
        atoms='H:1',
        thermo=(NASA([100.00, 4383.16],
                     [ 2.50000000E+00, -2.38914167E-13,  3.12709494E-16,
                      -1.33367320E-19,  1.74989654E-23,  2.54742178E+04,
                      -4.44972897E-01]),
                NASA([4383.16, 5000.00],
                     [ 2.50003447E+00, -3.04996987E-08,  1.01101187E-11,
                      -1.48796738E-15,  8.20356170E-20,  2.54741866E+04,
                      -4.45191184E-01])),
        transport=gas_transport(geom='atom',
                                diam=2.05,
                                well_depth=145.0))

species(name=u'C6H12-1(7)',
        atoms='H:12 C:6',
        thermo=(NASA([100.00, 2065.45],
                     [ 1.68598221E+00,  5.58664678E-02, -2.53058634E-05,
                       3.98022739E-09, -6.95050220E-14, -7.81739441E+03,
                       2.09920051E+01]),
                NASA([2065.45, 5000.00],
                     [ 2.13492441E+01,  2.79128048E-02, -1.23592816E-05,
                       2.17520184E-09, -1.38342160E-13, -1.81001612E+04,
                      -9.33636231E+01])),
        transport=gas_transport(geom='nonlinear',
                                diam=5.851,
                                well_depth=385.248))

species(name=u'C6H12-2(8)',
        atoms='H:12 C:6',
        thermo=(NASA([100.00, 1829.16],
                     [ 7.23497914E-01,  6.40962929E-02, -3.88937743E-05,
                       1.18285731E-08, -1.46479465E-12, -9.55473312E+03,
                       2.34752929E+01]),
                NASA([1829.16, 5000.00],
                     [ 1.55815815E+01,  3.16049577E-02, -1.22495189E-05,
                       2.11772642E-09, -1.37577832E-13, -1.49903398E+04,
                      -5.71786483E+01])),
        transport=gas_transport(geom='nonlinear',
                                diam=5.925,
                                well_depth=395.365))

species(name=u'C6H12-3(9)',
        atoms='H:12 C:6',
        thermo=(NASA([100.00, 1839.11],
                     [ 7.39765456E-01,  6.35836464E-02, -3.85035904E-05,
                       1.16726872E-08, -1.43916121E-12, -9.53996492E+03,
                       2.35193834E+01]),
                NASA([1839.11, 5000.00],
                     [ 1.56639500E+01,  3.11245826E-02, -1.20300125E-05,
                       2.07632194E-09, -1.34696993E-13, -1.50294956E+04,
                      -5.75744504E+01])),
        transport=gas_transport(geom='nonlinear',
                                diam=5.925,
                                well_depth=395.365))

species(name=u'C6H12(10)',
        atoms='H:12 C:6',
        thermo=(NASA([100.00, 1018.92],
                     [ 1.21824397E+00,  4.88307070E-02,  8.49214055E-06,
                      -3.91884007E-08,  1.67100558E-11, -8.55522000E+03,
                       2.43075994E+01]),
                NASA([1018.92, 5000.00],
                     [ 1.16699416E+01,  3.59248568E-02, -1.39119411E-05,
                       2.55989045E-09, -1.79819725E-13, -1.21450638E+04,
                      -3.34759078E+01])),
        transport=gas_transport(geom='nonlinear',
                                diam=5.884,
                                well_depth=388.064))

species(name=u'C6H12(11)',
        atoms='H:12 C:6',
        thermo=(NASA([100.00, 1917.59],
                     [ 2.29988559E+00,  4.93348058E-02, -1.39910600E-05,
                      -2.79392986E-09,  1.20742677E-12, -1.03230295E+04,
                       1.84312025E+01]),
                NASA([1917.59, 5000.00],
                     [ 1.85713833E+01,  3.37487534E-02, -1.61574143E-05,
                       2.95099503E-09, -1.92337797E-13, -1.99382403E+04,
                      -7.94628222E+01])),
        transport=gas_transport(geom='nonlinear',
                                diam=5.95,
                                well_depth=398.057))

species(name=u'H2(190)',
        atoms='H:2',
        thermo=(NASA([100.00, 1959.08],
                     [ 3.43536411E+00,  2.12710383E-04, -2.78625110E-07,
                       3.40267219E-10, -7.76032129E-14, -1.03135984E+03,
                      -3.90841731E+00]),
                NASA([1959.08, 5000.00],
                     [ 2.78816619E+00,  5.87640475E-04,  1.59010635E-07,
                      -5.52739465E-11,  4.34311304E-15, -5.96144481E+02,
                       1.12730527E-01])),
        transport=gas_transport(geom='linear',
                                diam=2.833,
                                well_depth=59.7))

species(name=u'C2H6(343)',
        atoms='H:6 C:2',
        thermo=(NASA([100.00, 1012.42],
                     [ 3.72239308E+00,  1.65083640E-03,  3.44175601E-05,
                      -3.76858321E-08,  1.24450696E-11, -1.15575902E+04,
                       4.68247939E+00]),
                NASA([1012.42, 5000.00],
                     [ 2.82848184E+00,  1.73040581E-02, -6.73334315E-06,
                       1.23742041E-09, -8.65676548E-14, -1.19978077E+04,
                       5.93812118E+00])),
        transport=gas_transport(geom='nonlinear',
                                diam=4.302,
                                well_depth=252.3,
                                rot_relax=1.5))

species(name=u'CH4(358)',
        atoms='H:4 C:1',
        thermo=(NASA([100.00, 1084.15],
                     [ 4.20540072E+00, -5.35540640E-03,  2.51117636E-05,
                      -2.13755910E-08,  5.97496145E-12, -1.01619427E+04,
                      -9.21226951E-01]),
                NASA([1084.15, 5000.00],
                     [ 9.08349401E-01,  1.14539479E-02, -4.57166053E-06,
                       8.29173612E-10, -5.66300105E-14, -9.72001110E+03,
                       1.39926204E+01])),
        transport=gas_transport(geom='nonlinear',
                                diam=3.746,
                                well_depth=141.4,
                                polar=2.6,
                                rot_relax=13.0))

species(name=u'X(1)',
        atoms='X:1',
        thermo=(NASA([100.00, 1554.81],
                     [ 7.10134880E-03, -4.25615041E-05,  8.98521156E-08,
                      -7.80182565E-11,  2.32462166E-14, -8.76099414E-01,
                      -3.11209498E-02]),
                NASA([1554.81, 5000.00],
                     [ 1.60301287E-01, -2.52237396E-04,  1.14182282E-07,
                      -1.21473809E-11,  3.85806589E-16, -7.08108147E+01,
                      -9.09535600E-01])))

species(name=u'C2H5X(5)',
        atoms='H:5 C:2 X:1',
        thermo=(NASA([100.00, 803.89],
                     [-1.64624290E+00,  3.89625197E-02, -4.31124593E-05,
                       2.97071589E-08, -8.80200440E-12, -1.37303065E+04,
                       9.27319544E+00]),
                NASA([803.89, 5000.00],
                     [ 1.97599860E+00,  2.09382411E-02, -9.47914613E-06,
                       1.81392354E-09, -1.27205831E-13, -1.43126603E+04,
                      -7.41117371E+00])))

species(name=u'HX(80)',
        atoms='H:1 X:1',
        thermo=(NASA([100.00, 952.91],
                     [-3.80957846E-01,  5.47219393E-03,  2.60946928E-06,
                      -9.65008412E-09,  4.63967474E-12,  5.08308894E+03,
                       1.01722845E+00]),
                NASA([952.91, 5000.00],
                     [ 2.80337105E+00, -5.41002993E-04,  4.99482316E-07,
                      -7.54902555E-11,  3.06721398E-15,  4.14235036E+03,
                      -1.59435356E+01])))

species(name=u'C2H3X(137)',
        atoms='H:3 C:2 X:1',
        thermo=(NASA([100.00, 928.60],
                     [ 3.83104022E+00, -8.76542826E-03,  6.98017027E-05,
                      -8.68052566E-08,  3.33256145E-11, -2.02611992E+03,
                      -1.81156365E+01]),
                NASA([928.60, 5000.00],
                     [ 8.78015372E+00,  1.92565992E-03,  8.25424482E-07,
                      -1.63654020E-10,  5.70926320E-15, -4.32535794E+03,
                      -4.90566656E+01])))

species(name=u'CH3X(139)',
        atoms='H:3 C:1 X:1',
        thermo=(NASA([100.00, 848.30],
                     [-1.21090611E+00,  2.92390831E-02, -4.49011672E-05,
                       3.86010689E-08, -1.30361474E-11, -9.74663097E+03,
                       6.80940157E+00]),
                NASA([848.30, 5000.00],
                     [ 1.62291116E+00,  1.12987225E-02, -5.08316650E-06,
                       9.46832954E-10, -6.42885005E-14, -1.00626969E+04,
                      -5.42502394E+00])))

#-------------------------------------------------------------------------------
# Reaction data
#-------------------------------------------------------------------------------
#  Reaction index: Chemkin #1; RMG #524
#  Template reaction: R_Recombination
#  Flux pairs: H(6), H2(190); H(6), H2(190);
#  Matched reaction 56 H + H <=> H2 in R_Recombination/training
#  This reaction matched rate rule [H_rad;H_rad]
#  family: R_Recombination

# Reaction 1
reaction('H(6) + H(6) <=> H2(190)', [5.450000e+10, 0.0, 1.5],
         id='gas-1')
#  Reaction index: Chemkin #1; RMG #72
#  Template reaction: Surface_EleyRideal_Addition_Multiple_Bond
#  Flux pairs: HX(80), C2H5X(5); C2H4(2), C2H5X(5);
#  Estimated using template [*H;R=R] for rate rule [*H;C=C]
#  Euclidian distance = 1.0
#  Multiplied by reaction path degeneracy 2.0
#  family: Surface_EleyRideal_Addition_Multiple_Bond

# surface1 Reaction 1
surface_reaction('C2H4(2) + HX(80) <=> C2H5X(5)', stick(4.000000e-01, 0.0, 2.39),
                 id='surface1-1')
#  Reaction index: Chemkin #2; RMG #180
#  Template reaction: Surface_Adsorption_Single
#  Flux pairs: X(1), HX(80); H(6), HX(80);
#  Exact match found for rate rule [Adsorbate;VacantSite]
#  Euclidian distance = 0
#  family: Surface_Adsorption_Single

# surface1 Reaction 2
surface_reaction('X(1) + H(6) <=> HX(80)', stick(1.000000e-01, 0.0, 0.0),
                 id='surface1-2')
#  Reaction index: Chemkin #3; RMG #168
#  Template reaction: Surface_Adsorption_Dissociative
#  Flux pairs: C2H4(2), C2H3X(137); C2H4(2), HX(80);
#  Estimated using template [R-H;VacantSite1;VacantSite2] for rate rule [C-H;VacantSite1;VacantSite2]
#  Euclidian distance = 1.0
#  Multiplied by reaction path degeneracy 4.0
#  family: Surface_Adsorption_Dissociative

# surface1 Reaction 3
surface_reaction('C2H4(2) + X(1) + X(1) <=> C2H3X(137) + HX(80)', stick(1.660000e-02, 0.0, 5.0),
                 options='duplicate',
                 id='surface1-3')
#  Reaction index: Chemkin #4; RMG #170
#  Template reaction: Surface_Adsorption_Dissociative
#  Flux pairs: C4H8-1(3), C2H5X(5); C4H8-1(3), C2H3X(137);
#  Exact match found for rate rule [C-C;VacantSite1;VacantSite2]
#  Euclidian distance = 0
#  family: Surface_Adsorption_Dissociative

# surface1 Reaction 4
surface_reaction('X(1) + X(1) + C4H8-1(3) <=> C2H5X(5) + C2H3X(137)', stick(6.595000e-04, 0.0, 9.0),
                 id='surface1-4')
#  Reaction index: Chemkin #5; RMG #865
#  Template reaction: Surface_Adsorption_Dissociative
#  Flux pairs: C2H4(2), C2H3X(137); C2H4(2), HX(80);
#  Estimated using template [R-H;VacantSite1;VacantSite2] for rate rule [C-H;VacantSite1;VacantSite2]
#  Euclidian distance = 1.0
#  Multiplied by reaction path degeneracy 2.0
#  family: Surface_Adsorption_Dissociative

# surface1 Reaction 5
surface_reaction('C2H4(2) + X(1) + X(1) <=> C2H3X(137) + HX(80)', stick(8.300000e-03, 0.0, 5.0),
                 options='duplicate',
                 id='surface1-5')
#  Reaction index: Chemkin #6; RMG #866
#  Template reaction: Surface_Adsorption_Dissociative
#  Flux pairs: C2H4(2), HX(80); C2H4(2), C2H3X(137);
#  Exact match found for rate rule [Adsorbate;VacantSite1;VacantSite2]
#  Euclidian distance = 0
#  Multiplied by reaction path degeneracy 2.0
#  family: Surface_Adsorption_Dissociative

# surface1 Reaction 6
surface_reaction('C2H4(2) + X(1) + X(1) <=> C2H3X(137) + HX(80)', stick(1.319000e-03, 0.0, 9.0),
                 options='duplicate',
                 id='surface1-6')
#  Reaction index: Chemkin #7; RMG #944
#  Template reaction: Surface_Adsorption_Dissociative
#  Flux pairs: H2(190), HX(80); H2(190), HX(80);
#  Exact match found for rate rule [H-H;VacantSite1;VacantSite2]
#  Euclidian distance = 0
#  family: Surface_Adsorption_Dissociative
#  Ea raised from 0.0 to 92.9 kJ/mol to match endothermicity of reaction.

# surface1 Reaction 7
surface_reaction('X(1) + X(1) + H2(190) <=> HX(80) + HX(80)', stick(3.200000e-02, 0.0, 22.196),
                 id='surface1-7')
#  Reaction index: Chemkin #8; RMG #934
#  Template reaction: Surface_Adsorption_Dissociative
#  Flux pairs: C2H6(343), HX(80); C2H6(343), C2H5X(5);
#  Estimated using template [R-H;VacantSite1;VacantSite2] for rate rule [C-H;VacantSite1;VacantSite2]
#  Euclidian distance = 1.0
#  Multiplied by reaction path degeneracy 3.0
#  family: Surface_Adsorption_Dissociative
#  Ea raised from 21.1 to 23.7 kJ/mol to match endothermicity of reaction.

# surface1 Reaction 8
surface_reaction('X(1) + X(1) + C2H6(343) <=> C2H5X(5) + HX(80)', stick(1.245000e-02, 0.0, 5.668),
                 options='duplicate',
                 id='surface1-8')
#  Reaction index: Chemkin #9; RMG #993
#  Template reaction: Surface_Adsorption_Dissociative
#  Flux pairs: C2H6(343), C2H5X(5); C2H6(343), HX(80);
#  Estimated using template [R-H;VacantSite1;VacantSite2] for rate rule [C-H;VacantSite1;VacantSite2]
#  Euclidian distance = 1.0
#  Multiplied by reaction path degeneracy 3.0
#  family: Surface_Adsorption_Dissociative
#  Ea raised from 21.1 to 23.7 kJ/mol to match endothermicity of reaction.

# surface1 Reaction 9
surface_reaction('X(1) + X(1) + C2H6(343) <=> C2H5X(5) + HX(80)', stick(1.245000e-02, 0.0, 5.668),
                 options='duplicate',
                 id='surface1-9')
#  Reaction index: Chemkin #10; RMG #994
#  Template reaction: Surface_Adsorption_Dissociative
#  Flux pairs: C2H6(343), HX(80); C2H6(343), C2H5X(5);
#  Exact match found for rate rule [Adsorbate;VacantSite1;VacantSite2]
#  Euclidian distance = 0
#  Multiplied by reaction path degeneracy 3.0
#  family: Surface_Adsorption_Dissociative

# surface1 Reaction 10
surface_reaction('X(1) + X(1) + C2H6(343) <=> C2H5X(5) + HX(80)', stick(1.979000e-03, 0.0, 9.0),
                 options='duplicate',
                 id='surface1-10')
#  Reaction index: Chemkin #11; RMG #978
#  Template reaction: Surface_Adsorption_Dissociative
#  Flux pairs: C2H6(343), CH3X(139); C2H6(343), CH3X(139);
#  Exact match found for rate rule [C-C;VacantSite1;VacantSite2]
#  Euclidian distance = 0
#  family: Surface_Adsorption_Dissociative

# surface1 Reaction 11
surface_reaction('X(1) + X(1) + C2H6(343) <=> CH3X(139) + CH3X(139)', stick(6.595000e-04, 0.0, 9.0),
                 id='surface1-11')
#  Reaction index: Chemkin #12; RMG #1011
#  Template reaction: Surface_Adsorption_Dissociative
#  Flux pairs: CH4(358), CH3X(139); CH4(358), HX(80);
#  Exact match found for rate rule [Adsorbate;VacantSite1;VacantSite2]
#  Euclidian distance = 0
#  Multiplied by reaction path degeneracy 2.0
#  family: Surface_Adsorption_Dissociative
#  Ea raised from 42.0 to 45.2 kJ/mol to match endothermicity of reaction.

# surface1 Reaction 12
surface_reaction('X(1) + X(1) + CH4(358) <=> HX(80) + CH3X(139)', stick(1.319000e-03, 0.0, 10.801),
                 options='duplicate',
                 id='surface1-12')
#  Reaction index: Chemkin #13; RMG #1029
#  Template reaction: Surface_Adsorption_Dissociative
#  Flux pairs: CH4(358), CH3X(139); CH4(358), HX(80);
#  Estimated using template [R-H;VacantSite1;VacantSite2] for rate rule [C-H;VacantSite1;VacantSite2]
#  Euclidian distance = 1.0
#  Multiplied by reaction path degeneracy 2.0
#  family: Surface_Adsorption_Dissociative
#  Ea raised from 42.0 to 45.2 kJ/mol to match endothermicity of reaction.

# surface1 Reaction 13
surface_reaction('X(1) + X(1) + CH4(358) <=> HX(80) + CH3X(139)', stick(8.300000e-03, 0.0, 10.801),
                 options='duplicate',
                 id='surface1-13')
#  Reaction index: Chemkin #14; RMG #1030
#  Template reaction: Surface_Adsorption_Dissociative
#  Flux pairs: CH4(358), HX(80); CH4(358), CH3X(139);
#  Exact match found for rate rule [Adsorbate;VacantSite1;VacantSite2]
#  Euclidian distance = 0
#  Multiplied by reaction path degeneracy 2.0
#  family: Surface_Adsorption_Dissociative
#  Ea raised from 42.0 to 45.2 kJ/mol to match endothermicity of reaction.

# surface1 Reaction 14
surface_reaction('X(1) + X(1) + CH4(358) <=> HX(80) + CH3X(139)', stick(1.319000e-03, 0.0, 10.801),
                 options='duplicate',
                 id='surface1-14')
