units(length='cm', time='s', quantity='mol', act_energy='kcal/mol')

ideal_gas(name='gas',
          elements="H D T C Ci O Oi N Ne Ar He Si S Cl X",
          species="""Ar        Ne        N2        He(2)     CH4(3)
                     H2(4)     C2H6(5)   CH3(6)    C3H8(7)   H(8)
                     C2H5(9)   C4H8(10)  C2H4(11)  C2H2(51)""",
          reactions='gas-*',
          transport='Mix',
          initial_state=state(temperature=300.0, pressure=OneAtm))

ideal_interface(name='surface1',
                elements="H D T C Ci O Oi N Ne Ar He Si S Cl X",
                species="""X(1)        HX(12)      HeX(84)     C2H3X(93)
                          C2H4X(99)   C2H2X(125)""",
                site_density=2.72e-09,
                phases="gas",
          reactions='surface1-*',
                initial_state=state(temperature=300.0, pressure=OneAtm))

#-------------------------------------------------------------------------------
# Element data
#-------------------------------------------------------------------------------

element(symbol=u'X', atomic_mass=195.083)
element(symbol=u'Ci', atomic_mass=13.003)
element(symbol=u'D', atomic_mass=2.014)
element(symbol=u'Oi', atomic_mass=18.0)
element(symbol=u'T', atomic_mass=3.016)
#-------------------------------------------------------------------------------
# Species data
#-------------------------------------------------------------------------------

species(name=u'Ar',
        atoms='Ar:1',
        thermo=(NASA([200.00, 1000.00],
                     [ 2.50000000E+00,  0.00000000E+00,  0.00000000E+00,
                       0.00000000E+00,  0.00000000E+00, -7.45375000E+02,
                       4.37967000E+00]),
                NASA([1000.00, 6000.00],
                     [ 2.50000000E+00,  0.00000000E+00,  0.00000000E+00,
                       0.00000000E+00,  0.00000000E+00, -7.45375000E+02,
                       4.37967000E+00])),
        transport=gas_transport(geom='atom',
                                diam=3.33,
                                well_depth=136.5))

species(name=u'Ne',
        atoms='Ne:1',
        thermo=(NASA([200.00, 1000.00],
                     [ 2.50000000E+00,  0.00000000E+00,  0.00000000E+00,
                       0.00000000E+00,  0.00000000E+00, -7.45375000E+02,
                       3.35532000E+00]),
                NASA([1000.00, 6000.00],
                     [ 2.50000000E+00,  0.00000000E+00,  0.00000000E+00,
                       0.00000000E+00,  0.00000000E+00, -7.45375000E+02,
                       3.35532000E+00])),
        transport=gas_transport(geom='atom',
                                diam=3.758,
                                well_depth=148.6))

species(name=u'N2',
        atoms='N:2',
        thermo=(NASA([200.00, 1000.00],
                     [ 3.53101000E+00, -1.23661000E-04, -5.02999000E-07,
                       2.43531000E-09, -1.40881000E-12, -1.04698000E+03,
                       2.96747000E+00]),
                NASA([1000.00, 6000.00],
                     [ 2.95258000E+00,  1.39690000E-03, -4.92632000E-07,
                       7.86010000E-11, -4.60755000E-15, -9.23949000E+02,
                       5.87189000E+00])),
        transport=gas_transport(geom='linear',
                                diam=3.621,
                                well_depth=97.53,
                                polar=1.76,
                                rot_relax=4.0))

species(name=u'He(2)',
        atoms='He:1',
        thermo=(NASA([200.00, 1000.00],
                     [ 2.50000000E+00,  0.00000000E+00,  0.00000000E+00,
                       0.00000000E+00,  0.00000000E+00, -7.45375000E+02,
                       9.28724000E-01]),
                NASA([1000.00, 6000.00],
                     [ 2.50000000E+00,  0.00000000E+00,  0.00000000E+00,
                       0.00000000E+00,  0.00000000E+00, -7.45375000E+02,
                       9.28724000E-01])),
        transport=gas_transport(geom='atom',
                                diam=2.576,
                                well_depth=10.2))

species(name=u'CH4(3)',
        atoms='H:4 C:1',
        thermo=(NASA([100.00, 1084.15],
                     [ 4.20540072E+00, -5.35540640E-03,  2.51117636E-05,
                      -2.13755910E-08,  5.97496145E-12, -1.01619427E+04,
                      -9.21226951E-01]),
                NASA([1084.15, 5000.00],
                     [ 9.08349401E-01,  1.14539479E-02, -4.57166053E-06,
                       8.29173612E-10, -5.66300105E-14, -9.72001110E+03,
                       1.39926204E+01])),
        transport=gas_transport(geom='nonlinear',
                                diam=3.746,
                                well_depth=141.4,
                                polar=2.6,
                                rot_relax=13.0))

species(name=u'H2(4)',
        atoms='H:2',
        thermo=(NASA([100.00, 1959.08],
                     [ 3.43536411E+00,  2.12710383E-04, -2.78625110E-07,
                       3.40267219E-10, -7.76032129E-14, -1.03135984E+03,
                      -3.90841731E+00]),
                NASA([1959.08, 5000.00],
                     [ 2.78816619E+00,  5.87640475E-04,  1.59010635E-07,
                      -5.52739465E-11,  4.34311304E-15, -5.96144481E+02,
                       1.12730527E-01])),
        transport=gas_transport(geom='linear',
                                diam=2.833,
                                well_depth=59.7))

species(name=u'C2H6(5)',
        atoms='H:6 C:2',
        thermo=(NASA([100.00, 1012.42],
                     [ 3.72239308E+00,  1.65083640E-03,  3.44175601E-05,
                      -3.76858321E-08,  1.24450696E-11, -1.15575902E+04,
                       4.68247939E+00]),
                NASA([1012.42, 5000.00],
                     [ 2.82848184E+00,  1.73040581E-02, -6.73334315E-06,
                       1.23742041E-09, -8.65676548E-14, -1.19978077E+04,
                       5.93812118E+00])),
        transport=gas_transport(geom='nonlinear',
                                diam=4.302,
                                well_depth=252.3,
                                rot_relax=1.5))

species(name=u'CH3(6)',
        atoms='H:3 C:1',
        thermo=(NASA([100.00, 697.63],
                     [ 3.96043178E+00,  5.92930195E-04,  8.78578951E-06,
                      -9.88035524E-09,  3.63236942E-12,  1.64218817E+04,
                       3.39862787E-01]),
                NASA([697.63, 5000.00],
                     [ 3.09511262E+00,  5.55429714E-03, -1.88158748E-06,
                       3.13334732E-10, -2.05194931E-14,  1.65426190E+04,
                       4.20297474E+00])),
        transport=gas_transport(geom='nonlinear',
                                diam=3.8,
                                well_depth=144.0))

species(name=u'C3H8(7)',
        atoms='H:8 C:3',
        thermo=(NASA([100.00, 989.99],
                     [ 3.06337235E+00,  1.29213276E-02,  3.47037401E-05,
                      -4.70952219E-08,  1.71386763E-11, -1.43905793E+04,
                       1.07835211E+01]),
                NASA([989.99, 5000.00],
                     [ 5.60435845E+00,  2.19529500E-02, -8.22084738E-06,
                       1.50104968E-09, -1.05636167E-13, -1.58393862E+04,
                      -6.22599672E+00])),
        transport=gas_transport(geom='nonlinear',
                                diam=4.982,
                                well_depth=266.801,
                                rot_relax=1.0))

species(name=u'H(8)',
        atoms='H:1',
        thermo=(NASA([100.00, 4383.16],
                     [ 2.50000000E+00, -2.38914167E-13,  3.12709494E-16,
                      -1.33367320E-19,  1.74989654E-23,  2.54742178E+04,
                      -4.44972897E-01]),
                NASA([4383.16, 5000.00],
                     [ 2.50003447E+00, -3.04996987E-08,  1.01101187E-11,
                      -1.48796738E-15,  8.20356170E-20,  2.54741866E+04,
                      -4.45191184E-01])),
        transport=gas_transport(geom='atom',
                                diam=2.05,
                                well_depth=145.0))

species(name=u'C2H5(9)',
        atoms='H:5 C:2',
        thermo=(NASA([100.00, 1006.87],
                     [ 3.68745380E+00,  3.06903510E-03,  2.55868228E-05,
                      -2.94070210E-08,  9.94049079E-12,  1.31153653E+04,
                       6.96689006E+00]),
                NASA([1006.87, 5000.00],
                     [ 3.53785893E+00,  1.37310809E-02, -5.29559886E-06,
                       9.71471661E-10, -6.80280220E-14,  1.26351584E+04,
                       5.15538530E+00])),
        transport=gas_transport(geom='nonlinear',
                                diam=4.302,
                                well_depth=252.3,
                                rot_relax=1.5))

species(name=u'C4H8(10)',
        atoms='H:8 C:4',
        thermo=(NASA([100.00, 1007.28],
                     [ 2.58772978E+00,  2.32777883E-02,  1.93412653E-05,
                      -3.55496729E-08,  1.36906178E-11, -1.91872929E+03,
                       1.45750592E+01]),
                NASA([1007.28, 5000.00],
                     [ 7.20516863E+00,  2.36361619E-02, -9.03150325E-06,
                       1.65392736E-09, -1.16019318E-13, -3.79733809E+03,
                      -1.24426086E+01])),
        transport=gas_transport(geom='nonlinear',
                                diam=5.176,
                                well_depth=357.002,
                                rot_relax=1.0))

species(name=u'C2H4(11)',
        atoms='H:4 C:2',
        thermo=(NASA([100.00, 979.37],
                     [ 3.97469045E+00, -4.75813325E-03,  4.16772624E-05,
                      -4.51377676E-08,  1.54218287E-11,  4.91540855E+03,
                       3.62439976E+00]),
                NASA([979.37, 5000.00],
                     [ 3.55670229E+00,  1.10625819E-02, -4.17009559E-06,
                       7.85564219E-10, -5.70042086E-14,  4.32042473E+03,
                       2.17665377E+00])),
        transport=gas_transport(geom='nonlinear',
                                diam=3.971,
                                well_depth=280.8,
                                rot_relax=1.5))

species(name=u'C2H2(51)',
        atoms='H:2 C:2',
        thermo=(NASA([100.00, 962.80],
                     [ 3.11332435E+00,  6.02052477E-03,  5.33053376E-06,
                      -1.10296353E-08,  4.62873048E-12,  2.62179843E+04,
                       4.37936499E+00]),
                NASA([962.80, 5000.00],
                     [ 5.02076056E+00,  4.22473259E-03, -1.42001875E-06,
                       2.56109264E-10, -1.84548305E-14,  2.55666260E+04,
                      -6.22579089E+00])),
        transport=gas_transport(geom='linear',
                                diam=4.1,
                                well_depth=209.0,
                                rot_relax=2.5))

species(name=u'X(1)',
        atoms='X:1',
        thermo=(NASA([100.00, 1554.81],
                     [ 7.10134880E-03, -4.25615041E-05,  8.98521156E-08,
                      -7.80182565E-11,  2.32462166E-14, -8.76099414E-01,
                      -3.11209498E-02]),
                NASA([1554.81, 5000.00],
                     [ 1.60301287E-01, -2.52237396E-04,  1.14182282E-07,
                      -1.21473809E-11,  3.85806589E-16, -7.08108147E+01,
                      -9.09535600E-01])))

species(name=u'HX(12)',
        atoms='H:1 X:1',
        thermo=(NASA([100.00, 952.91],
                     [-3.80957846E-01,  5.47219393E-03,  2.60946928E-06,
                      -9.65008412E-09,  4.63967474E-12, -3.55326830E+04,
                       1.01722845E+00]),
                NASA([952.91, 5000.00],
                     [ 2.80337105E+00, -5.41002993E-04,  4.99482316E-07,
                      -7.54902555E-11,  3.06721398E-15, -3.64734215E+04,
                      -1.59435356E+01])))

species(name=u'HeX(84)',
        atoms='X:1 He:1',
        thermo=(NASA([100.00, 4383.16],
                     [ 2.50000000E+00, -2.38914167E-13,  3.12709494E-16,
                      -1.33367320E-19,  1.74989654E-23,  2.51045171E+03,
                      -1.04087993E+01]),
                NASA([4383.16, 5000.00],
                     [ 2.50003447E+00, -3.04996987E-08,  1.01101187E-11,
                      -1.48796738E-15,  8.20356170E-20,  2.51042057E+03,
                      -1.04090176E+01])))

species(name=u'C2H3X(93)',
        atoms='H:3 C:2 X:1',
        thermo=(NASA([100.00, 928.60],
                     [ 3.83104022E+00, -8.76542826E-03,  6.98017027E-05,
                      -8.68052566E-08,  3.33256145E-11,  1.53806395E+04,
                      -1.81156365E+01]),
                NASA([928.60, 5000.00],
                     [ 8.78015372E+00,  1.92565992E-03,  8.25424482E-07,
                      -1.63654020E-10,  5.70926320E-15,  1.30814014E+04,
                      -4.90566656E+01])))

species(name=u'C2H4X(99)',
        atoms='H:4 C:2 X:1',
        thermo=(NASA([100.00, 940.15],
                     [ 3.88315385E+00, -7.62009644E-03,  6.32690924E-05,
                      -7.52917906E-08,  2.79387134E-11,  1.92361481E+03,
                      -1.23953225E+01]),
                NASA([940.15, 5000.00],
                     [ 6.60946016E+00,  6.91796044E-03, -1.62830580E-06,
                       2.98562998E-10, -2.53033988E-14,  2.55861925E+02,
                      -3.15232178E+01])))

species(name=u'C2H2X(125)',
        atoms='H:2 C:2 X:1',
        thermo=(NASA([100.00, 904.29],
                     [-1.76161723E+00,  4.48461515E-02, -8.74239009E-05,
                       7.97504771E-08, -2.67948251E-11,  2.15192264E+04,
                       1.62194338E+01]),
                NASA([904.29, 5000.00],
                     [ 2.96589075E+00,  9.38689723E-03, -4.47397249E-06,
                       8.06979855E-10, -5.16655862E-14,  2.12590281E+04,
                      -2.82361081E+00])))

#-------------------------------------------------------------------------------
# Reaction data
#-------------------------------------------------------------------------------
#  Reaction index: Chemkin #1; RMG #56
#  Template reaction: R_Recombination
#  Flux pairs: CH3(6), CH4(3); H(8), CH4(3);
#  Matched reaction 57 H + CH3 <=> CH4 in R_Recombination/training
#  This reaction matched rate rule [C_methyl;H_rad]
#  family: R_Recombination

# Reaction 1
reaction('H(8) + CH3(6) <=> CH4(3)', [1.930000e+14, 0.0, 0.27],
         id='gas-1')
#  Reaction index: Chemkin #2; RMG #58
#  Template reaction: R_Recombination
#  Flux pairs: H(8), H2(4); H(8), H2(4);
#  Matched reaction 56 H + H <=> H2 in R_Recombination/training
#  This reaction matched rate rule [H_rad;H_rad]
#  family: R_Recombination

# Reaction 2
reaction('H(8) + H(8) <=> H2(4)', [5.450000e+10, 0.0, 1.5],
         id='gas-2')
#  Reaction index: Chemkin #3; RMG #59
#  Template reaction: R_Recombination
#  Flux pairs: CH3(6), C2H6(5); CH3(6), C2H6(5);
#  Matched reaction 9 CH3 + CH3 <=> C2H6 in R_Recombination/training
#  This reaction matched rate rule [C_methyl;C_methyl]
#  family: R_Recombination

# Reaction 3
reaction('CH3(6) + CH3(6) <=> C2H6(5)', [9.450000e+14, -0.538, 0.135],
         id='gas-3')
#  Reaction index: Chemkin #4; RMG #60
#  Template reaction: R_Recombination
#  Flux pairs: C2H5(9), C2H6(5); H(8), C2H6(5);
#  Matched reaction 58 H + C2H5 <=> C2H6-2 in R_Recombination/training
#  This reaction matched rate rule [C_rad/H2/Cs;H_rad]
#  family: R_Recombination

# Reaction 4
reaction('H(8) + C2H5(9) <=> C2H6(5)', [1.000000e+14, 0.0, 0.0],
         id='gas-4')
#  Reaction index: Chemkin #5; RMG #63
#  Template reaction: R_Recombination
#  Flux pairs: C2H5(9), C3H8(7); CH3(6), C3H8(7);
#  Matched reaction 10 CH3 + C2H5 <=> C3H8 in R_Recombination/training
#  This reaction matched rate rule [C_rad/H2/Cs;C_methyl]
#  family: R_Recombination

# Reaction 5
reaction('CH3(6) + C2H5(9) <=> C3H8(7)', [1.230000e+15, -0.562, 0.021],
         id='gas-5')
#  Reaction index: Chemkin #6; RMG #68
#  Template reaction: R_Addition_MultipleBond
#  Flux pairs: C2H4(11), C2H5(9); H(8), C2H5(9);
#  Matched reaction 2541 H + C2H4 <=> C2H5-2 in R_Addition_MultipleBond/training
#  This reaction matched rate rule [Cds-HH_Cds-HH;HJ]
#  family: R_Addition_MultipleBond

# Reaction 6
reaction('H(8) + C2H4(11) <=> C2H5(9)', [4.620000e+08, 1.64, 1.01],
         id='gas-6')
#  Reaction index: Chemkin #7; RMG #109
#  Template reaction: H_Abstraction
#  Flux pairs: H(8), H2(4); CH4(3), CH3(6);
#  Matched reaction 186 CH4b + H <=> CH3_p1 + H2_p in H_Abstraction/training
#  This reaction matched rate rule [C_methane;H_rad]
#  family: H_Abstraction

# Reaction 7
reaction('H(8) + CH4(3) <=> H2(4) + CH3(6)', [4.100000e+03, 3.156, 8.755],
         id='gas-7')
#  Reaction index: Chemkin #8; RMG #110
#  Template reaction: H_Abstraction
#  Flux pairs: C2H6(5), C2H5(9); CH3(6), CH4(3);
#  Matched reaction 215 C2H6 + CH3_r3 <=> C2H5b + CH4 in H_Abstraction/training
#  This reaction matched rate rule [C_methane;C_rad/H2/Cs\H3]
#  family: H_Abstraction

# Reaction 8
reaction('CH3(6) + C2H6(5) <=> CH4(3) + C2H5(9)', [3.500000e+01, 3.44, 10.384],
         id='gas-8')
#  Reaction index: Chemkin #9; RMG #113
#  Template reaction: Disproportionation
#  Flux pairs: CH3(6), CH4(3); C2H5(9), C2H4(11);
#  Matched reaction 5 CH3 + C2H5 <=> CH4 + C2H4 in Disproportionation/training
#  This reaction matched rate rule [C_methyl;Cmethyl_Csrad]
#  family: Disproportionation

# Reaction 9
reaction('CH3(6) + C2H5(9) <=> CH4(3) + C2H4(11)', [6.570000e+14, -0.68, 0.0],
         id='gas-9')
#  Reaction index: Chemkin #10; RMG #114
#  Template reaction: H_Abstraction
#  Flux pairs: C2H6(5), C2H5(9); H(8), H2(4);
#  Matched reaction 210 C2H6 + H <=> C2H5b + H2_p in H_Abstraction/training
#  This reaction matched rate rule [H2;C_rad/H2/Cs\H3]
#  family: H_Abstraction

# Reaction 10
reaction('H(8) + C2H6(5) <=> H2(4) + C2H5(9)', [1.150000e+08, 1.9, 7.53],
         id='gas-10')
#  Reaction index: Chemkin #11; RMG #117
#  Template reaction: Disproportionation
#  Flux pairs: H(8), H2(4); C2H5(9), C2H4(11);
#  Matched reaction 4 H + C2H5 <=> H2 + C2H4 in Disproportionation/training
#  This reaction matched rate rule [H_rad;Cmethyl_Csrad]
#  family: Disproportionation

# Reaction 11
reaction('H(8) + C2H5(9) <=> H2(4) + C2H4(11)', [1.083000e+13, 0.0, 0.0],
         id='gas-11')
#  Reaction index: Chemkin #12; RMG #120
#  Template reaction: Disproportionation
#  Flux pairs: C2H5(9), C2H6(5); C2H5(9), C2H4(11);
#  Matched reaction 6 C2H5 + C2H5-2 <=> C2H6 + C2H4 in Disproportionation/training
#  This reaction matched rate rule [C_rad/H2/Cs;Cmethyl_Csrad]
#  family: Disproportionation

# Reaction 12
reaction('C2H5(9) + C2H5(9) <=> C2H6(5) + C2H4(11)', [6.900000e+13, -0.35, 0.0],
         id='gas-12')
#  Reaction index: Chemkin #1; RMG #108
#  Template reaction: Surface_Adsorption_vdW
#  Flux pairs: X(1), C2H4X(99); C2H4(11), C2H4X(99);
#  Exact match found for rate rule [Adsorbate;VacantSite]
#  Euclidian distance = 0
#  family: Surface_Adsorption_vdW

# surface1 Reaction 1
surface_reaction('X(1) + C2H4(11) <=> C2H4X(99)', stick(1.000000e-01, 0.0, 0.0),
                 id='surface1-1')
#  Reaction index: Chemkin #2; RMG #87
#  Template reaction: Surface_Adsorption_vdW
#  Flux pairs: X(1), HeX(84); He(2), HeX(84);
#  Exact match found for rate rule [Adsorbate;VacantSite]
#  Euclidian distance = 0
#  family: Surface_Adsorption_vdW
#  Ea raised from 0.0 to 27.1 kJ/mol to match endothermicity of reaction.

# surface1 Reaction 2
surface_reaction('X(1) + He(2) <=> HeX(84)', stick(1.000000e-01, 0.0, 6.471),
                 id='surface1-2')
#  Reaction index: Chemkin #3; RMG #1
#  Library reaction: Surface/CPOX_Pt/Deutschmann2006
#  Flux pairs: H2(4), HX(12); X(1), HX(12); X(1), HX(12);

# surface1 Reaction 3
surface_reaction('X(1) + X(1) + H2(4) <=> HX(12) + HX(12)', stick(4.600000e-02, 0.0, 0.0),
                 id='surface1-3')
#  Reaction index: Chemkin #4; RMG #98
#  Template reaction: Surface_Adsorption_Single
#  Flux pairs: X(1), HX(12); H(8), HX(12);
#  Exact match found for rate rule [Adsorbate;VacantSite]
#  Euclidian distance = 0
#  family: Surface_Adsorption_Single

# surface1 Reaction 4
surface_reaction('X(1) + H(8) <=> HX(12)', stick(1.000000e-01, 0.0, 0.0),
                 id='surface1-4')
#  Reaction index: Chemkin #5; RMG #107
#  Template reaction: Surface_Adsorption_Dissociative
#  Flux pairs: C2H4(11), C2H3X(93); C2H4(11), HX(12);
#  Exact match found for rate rule [Adsorbate;VacantSite1;VacantSite2]
#  Euclidian distance = 0
#  Multiplied by reaction path degeneracy 4.0
#  family: Surface_Adsorption_Dissociative

# surface1 Reaction 5
surface_reaction('X(1) + X(1) + C2H4(11) <=> C2H3X(93) + HX(12)', stick(4.000000e-02, 0.0, 10.0),
                 id='surface1-5')
#  Reaction index: Chemkin #6; RMG #197
#  Template reaction: EleyRideal_H_addition_multiple_bond
#  Flux pairs: HX(12), C2H3X(93); C2H2(51), C2H3X(93);
#  Estimated using template [Adsorbate1;Gas] for rate rule [*H;C#C]
#  Euclidian distance = 2.2360679775
#  Multiplied by reaction path degeneracy 2.0
#  family: EleyRideal_H_addition_multiple_bond
#  Ea raised from 204.1 to 205.5 kJ/mol to match endothermicity of reaction.

# surface1 Reaction 6
surface_reaction('C2H2(51) + HX(12) <=> C2H3X(93)', stick(2.000000e+14, 0.0, 49.105),
                 id='surface1-6')
#  Reaction index: Chemkin #7; RMG #210
#  Template reaction: Surface_Adsorption_vdW
#  Flux pairs: X(1), C2H2X(125); C2H2(51), C2H2X(125);
#  Exact match found for rate rule [Adsorbate;VacantSite]
#  Euclidian distance = 0
#  family: Surface_Adsorption_vdW

# surface1 Reaction 7
surface_reaction('X(1) + C2H2(51) <=> C2H2X(125)', stick(1.000000e-01, 0.0, 0.0),
                 id='surface1-7')
