units(length='cm', time='s', quantity='mol', act_energy='kcal/mol')

ideal_gas(name='gas',
          elements="H D T C Ci O Oi N Ne Ar He Si S Cl X",
          species="""n-heptane   Ar          He          Ne
                     N2          C2H4(2)     C4H8-1(3)   C4H8-2(4)
                     C4H6(7)     H2(68)      C4H6a(79)   C6H10d(84)
                     C6H8(111)   C8H10(122)  S(189)      S(190)
                     S(191)      S(205)      S(216)      S(820)
                     S(973)      S(1607)     S(2427)     S(2981)
                     S(3016)     S(3017)     S(5534)     S(5593)
                     S(9866)     S(9869)     S(12355)    S(15168)
                     S(17031)    S(22418)    S(22420)    S(24116)
                     S(25092)    S(28731)    S(28734)    S(35898)
                     S(35902)""",
          reactions='gas-*',
          initial_state=state(temperature=300.0, pressure=OneAtm))

ideal_interface(name='surface1',
                elements="H D T C Ci O Oi N Ne Ar He Si S Cl X",
                species="""X(1)        HX(5)       C2H3X(37)   C2H5X(40)
                          C4H7X(43)   C4H5X(80)   C4H5X(81)   C6H7X(141)
                          C6H7X(143)  SX(528)     SX(535)     SX(537)
                          SX(786)     SX(788)     SX(789)     SX(817)
                          SX(819)     SX(854)     SX(988)     SX(989)
                          SX(990)     SX(991)     SX(1327)    SX(1591)
                          SX(1595)    SX(2104)    SX(2105)    SX(2277)
                          SX(3030)    SX(3031)    SX(3734)    SX(3735)
                          SX(5269)    SX(5586)    SX(5590)    SX(7174)
                          SX(7175)    SX(7482)    SX(7719)    SX(7721)
                          SX(7723)    SX(9028)    SX(9032)    SX(9857)
                          SX(10652)   SX(12224)   SX(12225)   SX(12226)
                          SX(12227)   SX(12348)   SX(12482)   SX(12616)
                          SX(12617)   SX(12885)   SX(12886)   SX(13026)
                          SX(13163)   SX(13164)   SX(13165)   SX(15234)
                          SX(15237)   SX(15240)   SX(17024)   SX(17028)
                          SX(19270)   SX(19272)   SX(20779)   SX(22607)
                          SX(22609)   SX(24111)   SX(24112)   SX(24304)
                          SX(24499)   SX(24693)   SX(27223)   SX(27227)
                          SX(32099)   SX(32570)   SX(32571)   SX(34563)
                          SX(35020)   SX(35021)""",
                site_density=2.72e-09,
                phases="gas",
          reactions='surface1-*',
                initial_state=state(temperature=300.0, pressure=OneAtm))

#-------------------------------------------------------------------------------
# Element data
#-------------------------------------------------------------------------------

element(symbol=u'X', atomic_mass=195.083)
element(symbol=u'Ci', atomic_mass=13.003)
element(symbol=u'D', atomic_mass=2.014)
element(symbol=u'Oi', atomic_mass=18.0)
element(symbol=u'T', atomic_mass=3.016)
#-------------------------------------------------------------------------------
# Species data
#-------------------------------------------------------------------------------

species(name=u'n-heptane',
        atoms='H:16 C:7',
        thermo=(NASA([100.00, 1262.73],
                     [-2.91681405E-03,  7.69373649E-02, -3.48025563E-05,
                       1.86095180E-09,  2.01573617E-12, -2.57829342E+04,
                       3.00312148E+01]),
                NASA([1262.73, 5000.00],
                     [ 1.38377915E+01,  4.85945016E-02, -1.95474548E-05,
                       3.52837178E-09, -2.39064676E-13, -3.05141556E+04,
                      -4.48642836E+01])))

species(name=u'Ar',
        atoms='Ar:1',
        thermo=(NASA([200.00, 1000.00],
                     [ 2.50000000E+00,  0.00000000E+00,  0.00000000E+00,
                       0.00000000E+00,  0.00000000E+00, -7.45375000E+02,
                       4.37967000E+00]),
                NASA([1000.00, 6000.00],
                     [ 2.50000000E+00,  0.00000000E+00,  0.00000000E+00,
                       0.00000000E+00,  0.00000000E+00, -7.45375000E+02,
                       4.37967000E+00])))

species(name=u'He',
        atoms='He:1',
        thermo=(NASA([200.00, 1000.00],
                     [ 2.50000000E+00,  0.00000000E+00,  0.00000000E+00,
                       0.00000000E+00,  0.00000000E+00, -7.45375000E+02,
                       9.28724000E-01]),
                NASA([1000.00, 6000.00],
                     [ 2.50000000E+00,  0.00000000E+00,  0.00000000E+00,
                       0.00000000E+00,  0.00000000E+00, -7.45375000E+02,
                       9.28724000E-01])))

species(name=u'Ne',
        atoms='Ne:1',
        thermo=(NASA([200.00, 1000.00],
                     [ 2.50000000E+00,  0.00000000E+00,  0.00000000E+00,
                       0.00000000E+00,  0.00000000E+00, -7.45375000E+02,
                       3.35532000E+00]),
                NASA([1000.00, 6000.00],
                     [ 2.50000000E+00,  0.00000000E+00,  0.00000000E+00,
                       0.00000000E+00,  0.00000000E+00, -7.45375000E+02,
                       3.35532000E+00])))

species(name=u'N2',
        atoms='N:2',
        thermo=(NASA([200.00, 1000.00],
                     [ 3.53101000E+00, -1.23661000E-04, -5.02999000E-07,
                       2.43531000E-09, -1.40881000E-12, -1.04698000E+03,
                       2.96747000E+00]),
                NASA([1000.00, 6000.00],
                     [ 2.95258000E+00,  1.39690000E-03, -4.92632000E-07,
                       7.86010000E-11, -4.60755000E-15, -9.23949000E+02,
                       5.87189000E+00])))

species(name=u'C2H4(2)',
        atoms='H:4 C:2',
        thermo=(NASA([100.00, 979.36],
                     [ 3.97471606E+00, -4.75844285E-03,  4.16783770E-05,
                      -4.51392516E-08,  1.54224761E-11,  4.91540746E+03,
                       3.62430844E+00]),
                NASA([979.36, 5000.00],
                     [ 3.55660610E+00,  1.10627464E-02, -4.17019079E-06,
                       7.85586770E-10, -5.70060829E-14,  4.32046489E+03,
                       2.17719479E+00])))

species(name=u'C4H8-1(3)',
        atoms='H:8 C:4',
        thermo=(NASA([100.00, 1007.28],
                     [ 2.58772906E+00,  2.32777969E-02,  1.93412349E-05,
                      -3.55496333E-08,  1.36906009E-11, -1.91872926E+03,
                       1.45750618E+01]),
                NASA([1007.28, 5000.00],
                     [ 7.20517168E+00,  2.36361568E-02, -9.03150028E-06,
                       1.65392666E-09, -1.16019260E-13, -3.79733937E+03,
                      -1.24426257E+01])))

species(name=u'C4H8-2(4)',
        atoms='H:8 C:4',
        thermo=(NASA([100.00, 1157.79],
                     [ 2.51998327E+00,  2.76812799E-02,  9.43783469E-07,
                      -1.25009101E-08,  4.67144666E-12, -3.34374767E+03,
                       1.30195623E+01]),
                NASA([1157.79, 5000.00],
                     [ 6.04225708E+00,  2.60072350E-02, -1.04843374E-05,
                       1.90880922E-09, -1.30600505E-13, -4.86276511E+03,
                      -7.52715109E+00])))

species(name=u'C4H6(7)',
        atoms='H:6 C:4',
        thermo=(NASA([100.00, 946.05],
                     [ 2.80599310E+00,  1.02584471E-02,  6.17260255E-05,
                      -9.01642687E-08,  3.59116961E-11,  1.16584972E+04,
                       1.20621434E+01]),
                NASA([946.05, 5000.00],
                     [ 1.24693720E+01,  1.00553901E-02, -2.41206872E-06,
                       4.57077303E-10, -3.93160571E-14,  8.01077795E+03,
                      -4.36374720E+01])))

species(name=u'H2(68)',
        atoms='H:2',
        thermo=(NASA([100.00, 1959.08],
                     [ 3.43536412E+00,  2.12710353E-04, -2.78625043E-07,
                       3.40267167E-10, -7.76031998E-14, -1.03135984E+03,
                      -3.90841732E+00]),
                NASA([1959.08, 5000.00],
                     [ 2.78816583E+00,  5.87640942E-04,  1.59010417E-07,
                      -5.52739026E-11,  4.34310984E-15, -5.96144270E+02,
                       1.12732655E-01])))

species(name=u'C4H6a(79)',
        atoms='H:6 C:4',
        thermo=(NASA([100.00, 950.38],
                     [ 3.41327601E+00, -4.60830638E-03,  9.57205603E-05,
                      -1.18800574E-07,  4.44495312E-11,  1.74039828E+04,
                       1.01517556E+01]),
                NASA([950.38, 5000.00],
                     [ 9.72156091E+00,  1.36879055E-02, -3.93842260E-06,
                       7.58710118E-10, -6.16013131E-14,  1.41795804E+04,
                      -3.06164436E+01])))

species(name=u'C6H10d(84)',
        atoms='H:10 C:6',
        thermo=(NASA([100.00, 969.70],
                     [ 2.39493639E+00,  1.31308716E-02,  1.02019898E-04,
                      -1.35266841E-07,  5.06735576E-11, -2.55363631E+03,
                       1.63461006E+01]),
                NASA([969.70, 5000.00],
                     [ 1.20193596E+01,  2.96991246E-02, -1.06504175E-05,
                       2.03502649E-09, -1.52378829E-13, -7.06570658E+03,
                      -4.34309725E+01])))

species(name=u'C6H8(111)',
        atoms='H:8 C:6',
        thermo=(NASA([100.00, 972.94],
                     [ 1.82686070E+00,  3.47046353E-02,  2.41070171E-05,
                      -5.44847920E-08,  2.29388832E-11,  1.99100661E+04,
                       1.81393315E+01]),
                NASA([972.94, 5000.00],
                     [ 1.21686202E+01,  2.40472785E-02, -8.58151834E-06,
                       1.57034031E-09, -1.12795334E-13,  1.63897115E+04,
                      -3.92195169E+01])))

species(name=u'C8H10(122)',
        atoms='H:10 C:8',
        thermo=(NASA([100.00, 966.00],
                     [ 5.26364552E-01,  5.92493286E-02,  6.02658334E-06,
                      -5.32875938E-08,  2.55662369E-11,  2.61873255E+04,
                       2.61353490E+01]),
                NASA([966.00, 5000.00],
                     [ 1.80461436E+01,  2.79985777E-02, -9.56971683E-06,
                       1.72854036E-09, -1.24398543E-13,  2.08757672E+04,
                      -6.77541641E+01])))

species(name=u'S(189)',
        atoms='H:14 C:10',
        thermo=(NASA([100.00, 968.43],
                     [-1.78657670E-01,  6.27636610E-02,  6.13275679E-05,
                      -1.25568699E-07,  5.26247225E-11,  1.23467547E+04,
                       3.16624716E+01]),
                NASA([968.43, 5000.00],
                     [ 2.28001036E+01,  3.95488872E-02, -1.37666755E-05,
                       2.57450736E-09, -1.90686366E-13,  4.53405575E+03,
                      -9.58178615E+01])))

species(name=u'S(190)',
        atoms='H:14 C:10',
        thermo=(NASA([100.00, 968.43],
                     [-1.78657670E-01,  6.27636610E-02,  6.13275679E-05,
                      -1.25568699E-07,  5.26247225E-11,  1.23467547E+04,
                       3.16624716E+01]),
                NASA([968.43, 5000.00],
                     [ 2.28001036E+01,  3.95488872E-02, -1.37666755E-05,
                       2.57450736E-09, -1.90686366E-13,  4.53405575E+03,
                      -9.58178615E+01])))

species(name=u'S(191)',
        atoms='H:14 C:10',
        thermo=(NASA([100.00, 996.97],
                     [-2.31041028E-02,  6.10027193E-02,  5.86050814E-05,
                      -1.14664509E-07,  4.61676159E-11,  1.47392063E+04,
                       3.19070927E+01]),
                NASA([996.97, 5000.00],
                     [ 2.05248122E+01,  4.51728960E-02, -1.77983883E-05,
                       3.44207438E-09, -2.53592253E-13,  7.33162081E+03,
                      -8.37648853E+01])))

species(name=u'S(205)',
        atoms='H:16 C:12',
        thermo=(NASA([100.00, 980.77],
                     [-2.21845665E+00,  1.15202302E-01, -4.46058253E-05,
                      -2.89292454E-08,  2.08193354E-11,  3.97133228E+04,
                       4.48687920E+01]),
                NASA([980.77, 5000.00],
                     [ 2.59409200E+01,  4.89148103E-02, -1.74910345E-05,
                       3.12129948E-09, -2.18247198E-13,  3.18543069E+04,
                      -1.02343316E+02])))

species(name=u'S(216)',
        atoms='H:16 C:12',
        thermo=(NASA([100.00, 989.29],
                     [-1.49871027E+00,  8.97231513E-02,  3.13728211E-05,
                      -1.05849951E-07,  4.65472901E-11,  2.08342656E+04,
                       3.86324941E+01]),
                NASA([989.29, 5000.00],
                     [ 2.71231573E+01,  4.82447418E-02, -1.83146882E-05,
                       3.49879125E-09, -2.57494969E-13,  1.15378770E+04,
                      -1.17506583E+02])))

species(name=u'S(820)',
        atoms='H:13 C:10',
        thermo=(NASA([100.00, 1000.73],
                     [ 9.24555464E-02,  5.97355855E-02,  5.78871300E-05,
                      -1.10867485E-07,  4.41580299E-11,  2.45217629E+04,
                       2.85420964E+01]),
                NASA([1000.73, 5000.00],
                     [ 1.89949310E+01,  4.75913310E-02, -1.89555491E-05,
                       3.64083741E-09, -2.65833917E-13,  1.75633333E+04,
                      -7.85294588E+01])))

species(name=u'S(973)',
        atoms='H:14 C:10',
        thermo=(NASA([100.00, 1026.38],
                     [-2.04485560E-01,  6.87984832E-02,  3.42640846E-05,
                      -8.47374871E-08,  3.42039564E-11,  1.03310869E+04,
                       2.80524687E+01]),
                NASA([1026.38, 5000.00],
                     [ 1.86284987E+01,  5.10531563E-02, -2.11321735E-05,
                       4.07064082E-09, -2.94617581E-13,  3.53386199E+03,
                      -7.75757937E+01])))

species(name=u'S(1607)',
        atoms='H:14 C:10',
        thermo=(NASA([100.00, 1055.81],
                     [-3.54017477E-01,  7.84287704E-02, -6.80308534E-06,
                      -3.81808354E-08,  1.75614230E-11,  1.48609857E+04,
                       2.94273079E+01]),
                NASA([1055.81, 5000.00],
                     [ 1.66306406E+01,  5.11587625E-02, -2.07367411E-05,
                       3.87868245E-09, -2.73480890E-13,  9.20790612E+03,
                      -6.32229088E+01])))

species(name=u'S(2427)',
        atoms='H:14 C:10',
        thermo=(NASA([100.00, 974.14],
                     [-4.98430854E-01,  7.37939716E-02,  2.71851067E-05,
                      -8.95987019E-08,  3.98718484E-11,  9.43089456E+03,
                       3.12086110E+01]),
                NASA([974.14, 5000.00],
                     [ 2.24683141E+01,  4.00995513E-02, -1.42625815E-05,
                       2.63940716E-09, -1.92019869E-13,  2.08049504E+03,
                      -9.37518546E+01])))

species(name=u'S(2981)',
        atoms='H:13 C:10',
        thermo=(NASA([100.00, 986.38],
                     [-1.54493551E-05,  6.58256267E-02,  3.11002907E-05,
                      -8.35076671E-08,  3.55086836E-11,  1.81700564E+04,
                       3.24482933E+01]),
                NASA([986.38, 5000.00],
                     [ 1.83909399E+01,  4.41789029E-02, -1.64765093E-05,
                       3.05235475E-09, -2.18908318E-13,  1.19669088E+04,
                      -6.90782445E+01])))

species(name=u'S(3016)',
        atoms='H:14 C:10',
        thermo=(NASA([100.00, 1020.53],
                     [-3.97088667E-01,  7.75162211E-02,  6.84060276E-07,
                      -5.05020494E-08,  2.30977837E-11,  1.21827946E+04,
                       3.09001989E+01]),
                NASA([1020.53, 5000.00],
                     [ 1.81749563E+01,  4.77343168E-02, -1.87621936E-05,
                       3.50079189E-09, -2.48591460E-13,  6.15234931E+03,
                      -7.00502669E+01])))

species(name=u'S(3017)',
        atoms='H:14 C:10',
        thermo=(NASA([100.00, 993.52],
                     [ 2.15843276E-01,  5.91483958E-02,  5.29942731E-05,
                      -1.03518063E-07,  4.15245382E-11,  1.26312914E+04,
                       3.01350656E+01]),
                NASA([993.52, 5000.00],
                     [ 1.73970636E+01,  4.82362593E-02, -1.84929210E-05,
                       3.47527858E-09, -2.50708945E-13,  6.34191811E+03,
                      -6.71135018E+01])))

species(name=u'S(5534)',
        atoms='H:13 C:10',
        thermo=(NASA([100.00, 1637.26],
                     [ 2.87179558E-02,  8.19008576E-02, -3.78215733E-05,
                       3.53593735E-09,  8.99568467E-13,  1.18083830E+04,
                       2.72174820E+01]),
                NASA([1637.26, 5000.00],
                     [ 2.29591379E+01,  4.50551879E-02, -2.16330004E-05,
                       4.09765539E-09, -2.78490076E-13,  1.72961556E+03,
                      -1.02562734E+02])))

species(name=u'S(5593)',
        atoms='H:14 C:10',
        thermo=(NASA([100.00, 1015.96],
                     [-3.04208179E-01,  7.49867461E-02,  7.06992940E-06,
                      -5.67495468E-08,  2.52395255E-11,  3.97968286E+03,
                       3.19838748E+01]),
                NASA([1015.96, 5000.00],
                     [ 1.79904052E+01,  4.76930761E-02, -1.86810396E-05,
                       3.48836134E-09, -2.48182511E-13, -2.04637536E+03,
                      -6.79290595E+01])))

species(name=u'S(9866)',
        atoms='H:16 C:12',
        thermo=(NASA([100.00, 1041.38],
                     [-1.35750078E+00,  9.52208235E-02, -9.01439167E-06,
                      -4.97673163E-08,  2.35580026E-11,  2.50753582E+03,
                       4.07100350E+01]),
                NASA([1041.38, 5000.00],
                     [ 2.18022512E+01,  5.54531856E-02, -2.25861198E-05,
                       4.27891148E-09, -3.05466315E-13, -4.98338373E+03,
                      -8.47679367E+01])))

species(name=u'S(9869)',
        atoms='H:18 C:14',
        thermo=(NASA([100.00, 1024.97],
                     [-2.83447170E+00,  1.23974754E-01, -3.64524766E-05,
                      -4.05450741E-08,  2.36969879E-11,  8.60263937E+03,
                       4.74392462E+01]),
                NASA([1024.97, 5000.00],
                     [ 2.83092162E+01,  5.86710058E-02, -2.31827947E-05,
                       4.35396631E-09, -3.10850051E-13, -7.35599318E+02,
                      -1.17989214E+02])))

species(name=u'S(12355)',
        atoms='H:14 C:10',
        thermo=(NASA([100.00, 1000.82],
                     [-6.31768052E-02,  6.63327958E-02,  3.52866104E-05,
                      -8.69374671E-08,  3.59821837E-11,  1.49219107E+04,
                       3.14585536E+01]),
                NASA([1000.82, 5000.00],
                     [ 1.83633542E+01,  4.74202731E-02, -1.83998113E-05,
                       3.46693133E-09, -2.49801392E-13,  8.49241227E+03,
                      -7.11484830E+01])))

species(name=u'S(15168)',
        atoms='H:13 C:10',
        thermo=(NASA([100.00, 979.28],
                     [ 3.54033419E-01,  4.79440619E-02,  9.91278689E-05,
                      -1.58881540E-07,  6.24376969E-11,  2.45839810E+04,
                       2.99876046E+01]),
                NASA([979.28, 5000.00],
                     [ 2.11015820E+01,  4.32419253E-02, -1.62764158E-05,
                       3.14997436E-09, -2.35699055E-13,  1.66823923E+04,
                      -8.92692643E+01])))

species(name=u'S(17031)',
        atoms='H:14 C:10',
        thermo=(NASA([100.00, 995.07],
                     [ 6.44807758E-02,  5.69410215E-02,  7.56230903E-05,
                      -1.32718043E-07,  5.23770650E-11,  1.03929718E+04,
                       2.94701969E+01]),
                NASA([995.07, 5000.00],
                     [ 2.05812731E+01,  4.69546262E-02, -1.85933431E-05,
                       3.61217346E-09, -2.67123578E-13,  2.72113861E+03,
                      -8.74425300E+01])))

species(name=u'S(22418)',
        atoms='H:6 C:2',
        thermo=(NASA([100.00, 1012.42],
                     [ 3.72239291E+00,  1.65083841E-03,  3.44175530E-05,
                      -3.76858229E-08,  1.24450657E-11, -1.15575901E+04,
                       4.68247999E+00]),
                NASA([1012.42, 5000.00],
                     [ 2.82848257E+00,  1.73040568E-02, -6.73334245E-06,
                       1.23742024E-09, -8.65676410E-14, -1.19978080E+04,
                       5.93811707E+00])))

species(name=u'S(22420)',
        atoms='H:10 C:6',
        thermo=(NASA([100.00, 1020.63],
                     [ 9.97427413E-01,  5.59777045E-02, -2.05880600E-05,
                      -1.17182304E-08,  8.13452041E-12,  6.30749855E+03,
                       2.38941836E+01]),
                NASA([1020.63, 5000.00],
                     [ 1.33828218E+01,  2.83661253E-02, -1.07663110E-05,
                       1.95749020E-09, -1.36589418E-13,  2.68926840E+03,
                      -4.14511818E+01])))

species(name=u'S(24116)',
        atoms='H:10 C:8',
        thermo=(NASA([100.00, 989.07],
                     [ 1.22424730E+00,  4.27144094E-02,  4.13003314E-05,
                      -7.96170544E-08,  3.20725016E-11,  1.11684747E+04,
                       2.29833379E+01]),
                NASA([989.07, 5000.00],
                     [ 1.44320391E+01,  3.38551577E-02, -1.28362929E-05,
                       2.41903823E-09, -1.75566784E-13,  6.37644060E+03,
                      -5.16086387E+01])))

species(name=u'S(25092)',
        atoms='H:9 C:8',
        thermo=(NASA([100.00, 1301.32],
                     [ 1.36505412E+00,  4.93376890E-02, -1.21267229E-06,
                      -2.03825233E-08,  7.22402478E-12,  1.90436376E+04,
                       1.86486132E+01]),
                NASA([1301.32, 5000.00],
                     [ 1.23896684E+01,  4.04481892E-02, -1.97804651E-05,
                       3.89141065E-09, -2.75196986E-13,  1.40577015E+04,
                      -4.55750334E+01])))

species(name=u'S(28731)',
        atoms='H:12 C:10',
        thermo=(NASA([100.00, 988.98],
                     [ 2.39364104E-01,  5.92315310E-02,  4.10245301E-05,
                      -9.28001668E-08,  3.85984263E-11,  9.73239882E+03,
                       3.12330028E+01]),
                NASA([988.98, 5000.00],
                     [ 1.90851904E+01,  3.96020443E-02, -1.50400664E-05,
                       2.85516398E-09, -2.08725613E-13,  3.23711220E+03,
                      -7.34708907E+01])))

species(name=u'S(28734)',
        atoms='H:14 C:12',
        thermo=(NASA([100.00, 980.87],
                     [-1.23314061E+00,  8.79118404E-02,  1.39503545E-05,
                      -8.42184459E-08,  3.90906813E-11,  1.58273270E+04,
                       3.79475042E+01]),
                NASA([980.87, 5000.00],
                     [ 2.56859081E+01,  4.26710405E-02, -1.55552047E-05,
                       2.91168877E-09, -2.12617485E-13,  7.44198849E+03,
                      -1.07226673E+02])))

species(name=u'S(35898)',
        atoms='H:18 C:14',
        thermo=(NASA([100.00, 974.12],
                     [-3.51536476E+00,  1.39705225E-01, -6.25443132E-05,
                      -2.79069413E-08,  2.35158851E-11,  4.59904278E+04,
                       5.35450664E+01]),
                NASA([974.12, 5000.00],
                     [ 3.17972664E+01,  5.29017119E-02, -1.84995979E-05,
                       3.28428145E-09, -2.30245254E-13,  3.63493950E+04,
                      -1.30065341E+02])))

species(name=u'S(35902)',
        atoms='H:18 C:14',
        thermo=(NASA([100.00, 974.12],
                     [-3.51536476E+00,  1.39705225E-01, -6.25443132E-05,
                      -2.79069413E-08,  2.35158851E-11,  4.59904278E+04,
                       5.35450664E+01]),
                NASA([974.12, 5000.00],
                     [ 3.17972664E+01,  5.29017119E-02, -1.84995979E-05,
                       3.28428145E-09, -2.30245254E-13,  3.63493950E+04,
                      -1.30065341E+02])))

species(name=u'X(1)',
        atoms='X:1',
        thermo=(NASA([100.00, 1554.80],
                     [ 7.10139498E-03, -4.25619522E-05,  8.98533016E-08,
                      -7.80193649E-11,  2.32465471E-14, -8.76101712E-01,
                      -3.11211229E-02]),
                NASA([1554.80, 5000.00],
                     [ 1.60299900E-01, -2.52235409E-04,  1.14181275E-07,
                      -1.21471653E-11,  3.85790025E-16, -7.08100885E+01,
                      -9.09527530E-01])))

species(name=u'HX(5)',
        atoms='H:1 X:1',
        thermo=(NASA([100.00, 952.91],
                     [-3.80965452E-01,  5.47228709E-03,  2.60912778E-06,
                      -9.64961980E-09,  4.63946753E-12,  5.08308927E+03,
                       1.01725550E+00]),
                NASA([952.91, 5000.00],
                     [ 2.80339655E+00, -5.41047017E-04,  4.99507978E-07,
                      -7.54963647E-11,  3.06772366E-15,  4.14233985E+03,
                      -1.59436787E+01])))

species(name=u'C2H3X(37)',
        atoms='H:3 C:2 X:1',
        thermo=(NASA([100.00, 928.62],
                     [ 3.83091018E+00, -8.76381562E-03,  6.97956896E-05,
                      -8.67969174E-08,  3.33218121E-11,  9.57839188E+03,
                      -1.81151753E+01]),
                NASA([928.62, 5000.00],
                     [ 8.78054562E+00,  1.92497720E-03,  8.25825014E-07,
                      -1.63749818E-10,  5.71728318E-15,  7.27898875E+03,
                      -4.90588618E+01])))

species(name=u'C2H5X(40)',
        atoms='H:5 C:2 X:1',
        thermo=(NASA([100.00, 803.81],
                     [-1.64625424E+00,  3.89626488E-02, -4.31128887E-05,
                       2.97076939E-08, -8.80222915E-12, -2.12579978E+03,
                       9.27323637E+00]),
                NASA([803.81, 5000.00],
                     [ 1.97598112E+00,  2.09382766E-02, -9.47916922E-06,
                       1.81392948E-09, -1.27206354E-13, -2.70814856E+03,
                      -7.41107956E+00])))

species(name=u'C4H7X(43)',
        atoms='H:7 C:4 X:1',
        thermo=(NASA([100.00, 965.06],
                     [ 2.56877619E+00,  1.97500674E-02,  3.72961301E-05,
                      -6.04017092E-08,  2.39989018E-11,  1.80842345E+03,
                      -8.56564322E+00]),
                NASA([965.06, 5000.00],
                     [ 9.89778724E+00,  1.86142959E-02, -6.38884453E-06,
                       1.17309353E-09, -8.55406646E-14, -9.67867752E+02,
                      -5.07182348E+01])))

species(name=u'C4H5X(80)',
        atoms='H:5 C:4 X:1',
        thermo=(NASA([100.00, 936.52],
                     [ 2.68471723E+00,  1.36244496E-02,  5.32591849E-05,
                      -8.32912448E-08,  3.41499374E-11,  1.16716221E+04,
                      -1.06510487E+01]),
                NASA([936.52, 5000.00],
                     [ 1.29012266E+01,  8.96921861E-03, -1.71920076E-06,
                       2.89744517E-10, -2.58686364E-14,  8.04858312E+03,
                      -6.83963397E+01])))

species(name=u'C4H5X(81)',
        atoms='H:5 C:4 X:1',
        thermo=(NASA([100.00, 928.63],
                     [ 2.64232495E+00,  8.31109593E-03,  8.12146261E-05,
                      -1.21398701E-07,  4.98630759E-11,  1.68545308E+04,
                      -1.03932963E+01]),
                NASA([928.63, 5000.00],
                     [ 1.69490474E+01,  2.00818812E-03,  2.03468841E-06,
                      -4.02657023E-10,  1.85400094E-14,  1.18120364E+04,
                      -9.11990785E+01])))

species(name=u'C6H7X(141)',
        atoms='H:7 C:6 X:1',
        thermo=(NASA([100.00, 939.12],
                     [ 1.23971063E+00,  4.15294424E-02,  2.87312030E-05,
                      -7.68516542E-08,  3.51745289E-11,  1.71382253E+04,
                      -4.03285459E+00]),
                NASA([939.12, 5000.00],
                     [ 1.93724853E+01,  1.27701081E-02, -2.75741682E-06,
                       4.63865028E-10, -3.86965214E-14,  1.15948950E+04,
                      -1.01754711E+02])))

species(name=u'C6H7X(143)',
        atoms='H:7 C:6 X:1',
        thermo=(NASA([100.00, 945.31],
                     [ 1.76545134E+00,  3.00643386E-02,  5.04823806E-05,
                      -9.18356912E-08,  3.86710488E-11,  2.47541668E+04,
                      -4.22047906E+00]),
                NASA([945.31, 5000.00],
                     [ 1.62876414E+01,  1.66989483E-02, -4.60790511E-06,
                       8.23797195E-10, -6.40998588E-14,  1.98601341E+04,
                      -8.48285150E+01])))

species(name=u'SX(528)',
        atoms='H:13 C:10 X:1',
        thermo=(NASA([100.00, 980.09],
                     [-7.11601081E-02,  5.51564532E-02,  9.33356300E-05,
                      -1.59547857E-07,  6.38088151E-11,  1.53964082E+04,
                       9.46132705E+00]),
                NASA([980.09, 5000.00],
                     [ 2.40867320E+01,  4.15026012E-02, -1.57682102E-05,
                       3.09421209E-09, -2.34162753E-13,  6.58146354E+03,
                      -1.27412990E+02])))

species(name=u'SX(535)',
        atoms='H:15 C:12 X:1',
        thermo=(NASA([100.00, 970.41],
                     [-1.56569509E+00,  8.81414876E-02,  4.50605462E-05,
                      -1.27176203E-07,  5.60968067E-11,  1.98907551E+04,
                       1.47918280E+01]),
                NASA([970.41, 5000.00],
                     [ 2.93698510E+01,  4.39659324E-02, -1.54771168E-05,
                       2.91255684E-09, -2.16617391E-13,  9.96268515E+03,
                      -1.53743548E+02])))

species(name=u'SX(537)',
        atoms='H:15 C:12 X:1',
        thermo=(NASA([100.00, 970.72],
                     [-1.55417774E+00,  8.50306529E-02,  5.78320529E-05,
                      -1.43136626E-07,  6.21619029E-11,  2.56781023E+04,
                       1.55571823E+01]),
                NASA([970.72, 5000.00],