units(length='cm', time='s', quantity='mol', act_energy='kcal/mol')

ideal_gas(name='gas',
          elements="H D T C Ci O Oi N Ne Ar He Si S Cl X",
          species="""n-heptane   Ar          He          Ne
                     N2          C2H4(2)     C4H8-1(3)   C4H8-2(4)
                     C4H6(7)     C3H6(24)    H2(47)      C6H10k(95)
                     C8H12(99)   C6H10(123)  C8H14(130)  C4H8(151)
                     CH4(295)    C5H10(299)  C5H10(300)  C5H10(301)
                     C2H6(310)   C6H12(573)  C3H8(583)   C8H14(586)
                     C4H10(590)  S(1032)     S(1118)     S(2006)
                     S(2206)     S(2298)     S(2521)     S(3090)
                     S(3259)     S(3481)     S(4998)     S(5903)
                     S(6038)     S(6046)     S(6190)     S(6191)
                     S(6202)     S(6211)     S(6347)     S(6385)
                     S(6486)     S(6643)     S(8246)     S(8268)
                     S(9379)""",
          reactions='gas-*',
          initial_state=state(temperature=300.0, pressure=OneAtm))

ideal_interface(name='surface1',
                elements="H D T C Ci O Oi N Ne Ar He Si S Cl X",
                species="""X(1)        HX(5)       C2H3X(27)   allylX(28)
                          CH3X(29)    C2H5X(30)   C4H7X(31)   C4H7X(32)
                          C4H7X(33)   C4H7X(34)   C3H5X(35)   C4H7X(36)
                          C4H7X(37)   C4H9X(44)   C4H9X(45)   C6H11X(51)
                          C6H11X(52)  C4H5X(56)   C4H5X(57)   C6H9X(66)
                          C8H13X(73)  C8H13X(74)  C8H13X(75)  C6H9X(80)
                          C8H13X(82)  C8H13X(83)  C8H11X(85)  C8H11X(86)
                          C4H7X(118)  SX(119)     SX(124)     SX(125)
                          C3H5X(145)  C4H7X(163)  C4H9X(168)  C4H9X(169)
                          SX(171)     SX(176)     SX(178)     C6H9X(191)
                          C5H7X(192)  C6H9X(215)  C6H9X(216)  C6H9X(217)
                          SX(230)     SX(231)     SX(232)     SX(233)
                          SX(234)     C3H7X(291)  SX(292)     SX(293)
                          SX(294)     C5H9X(296)  C5H9X(297)  SX(303)
                          SX(304)     C6H9X(311)  C6H9X(339)  C6H9X(340)
                          C6H9X(341)  C6H9X(418)  SX(420)     C6H9X(447)
                          C6H9X(448)  SX(568)     SX(569)     SX(570)
                          SX(577)     SX(578)     C5H9X(619)  SX(682)
                          SX(684)     SX(687)     C3H7X(825)  C5H9X(826)
                          SX(870)     SX(871)     SX(872)     C5H7X(886)
                          SX(928)     SX(963)     C6H9X(998)  C6H9X(999)
                          SX(1003)    SX(1004)    SX(1016)    SX(1044)
                          SX(1045)    SX(1046)    SX(1048)    SX(1049)
                          SX(1060)    SX(1089)    SX(1131)    SX(1132)
                          SX(1176)    SX(1286)    SX(1341)    SX(1363)
                          SX(1364)    SX(1365)    SX(1467)    SX(1468)
                          SX(1470)    SX(1496)    SX(1525)    SX(1526)
                          SX(1529)    SX(1614)    SX(1640)    SX(1641)
                          SX(1652)    SX(1732)    SX(1758)    SX(1759)
                          SX(1787)    SX(1837)    SX(1866)    SX(1867)
                          SX(1868)    SX(1919)    SX(1922)    SX(1950)
                          SX(1951)    SX(1952)    SX(2022)    SX(2023)
                          SX(2028)    SX(2029)    SX(2030)    SX(2058)
                          SX(2116)    SX(2119)    SX(2147)    SX(2148)
                          SX(2176)    SX(2333)    SX(2579)    SX(2686)
                          SX(2687)    SX(2716)    SX(2717)    SX(2765)
                          SX(2791)    SX(2876)    SX(2877)    SX(2878)
                          SX(2879)    SX(2880)    SX(2881)    SX(3037)
                          SX(3068)    SX(3069)    SX(3070)    SX(3097)
                          SX(3124)    SX(3240)    SX(3321)    SX(3353)
                          SX(3460)    SX(3462)    SX(3675)    SX(3732)
                          SX(3826)    SX(3831)    SX(3833)    SX(3888)
                          SX(3900)    SX(3902)    SX(3904)    SX(3905)
                          SX(3906)    SX(3926)    SX(3928)    SX(3943)
                          SX(3968)    SX(3969)    SX(4035)    SX(4036)
                          SX(4117)    SX(4118)    SX(4216)    SX(4218)
                          SX(4220)    SX(4221)    SX(4222)    SX(4247)
                          SX(4267)    SX(4268)    SX(4316)    SX(4342)
                          SX(4343)    SX(4344)    SX(4372)    SX(4373)
                          SX(4479)    SX(4518)    SX(4519)    SX(4621)
                          SX(4622)    SX(4632)    SX(4633)    SX(4634)
                          SX(4640)    SX(4641)    SX(4677)    SX(4685)
                          SX(4686)    SX(4899)    SX(4900)    SX(4926)
                          SX(4939)    SX(4941)    SX(4983)    SX(4984)
                          SX(4992)    SX(4993)    SX(5000)    SX(5008)
                          SX(5013)    SX(5014)    SX(5018)    SX(5040)
                          SX(5041)    SX(5045)    SX(5073)    SX(5075)
                          SX(5104)    SX(5105)    SX(5109)    SX(5183)
                          SX(5203)    SX(5205)    SX(5232)    SX(5295)
                          SX(5296)    SX(5356)    SX(5357)    SX(5385)
                          SX(5386)    SX(5387)    SX(5413)    SX(5463)
                          SX(5464)    SX(5465)    SX(5468)    SX(5589)
                          SX(5590)    SX(5678)    SX(5682)    SX(5879)
                          SX(5884)    SX(5890)    SX(5898)    SX(5901)
                          SX(5908)    SX(5909)    SX(5910)    SX(5922)
                          SX(5939)    SX(5949)    SX(5963)    SX(5964)
                          SX(5965)    SX(6021)    SX(6184)    SX(6350)
                          SX(6365)    SX(6468)    SX(6502)    SX(6503)
                          SX(6646)    SX(6822)    SX(7411)    SX(8201)
                          SX(8513)    SX(8514)    SX(9130)""",
                site_density=2.72e-09,
                phases="gas",
          reactions='surface1-*',
                initial_state=state(temperature=300.0, pressure=OneAtm))

#-------------------------------------------------------------------------------
# Element data
#-------------------------------------------------------------------------------

element(symbol=u'X', atomic_mass=195.083)
element(symbol=u'Ci', atomic_mass=13.003)
element(symbol=u'D', atomic_mass=2.014)
element(symbol=u'Oi', atomic_mass=18.0)
element(symbol=u'T', atomic_mass=3.016)
#-------------------------------------------------------------------------------
# Species data
#-------------------------------------------------------------------------------

species(name=u'n-heptane',
        atoms='H:16 C:7',
        thermo=(NASA([100.00, 1262.73],
                     [-2.91681405E-03,  7.69373649E-02, -3.48025563E-05,
                       1.86095180E-09,  2.01573617E-12, -2.57829342E+04,
                       3.00312148E+01]),
                NASA([1262.73, 5000.00],
                     [ 1.38377915E+01,  4.85945016E-02, -1.95474548E-05,
                       3.52837178E-09, -2.39064676E-13, -3.05141556E+04,
                      -4.48642836E+01])))

species(name=u'Ar',
        atoms='Ar:1',
        thermo=(NASA([200.00, 1000.00],
                     [ 2.50000000E+00,  0.00000000E+00,  0.00000000E+00,
                       0.00000000E+00,  0.00000000E+00, -7.45375000E+02,
                       4.37967000E+00]),
                NASA([1000.00, 6000.00],
                     [ 2.50000000E+00,  0.00000000E+00,  0.00000000E+00,
                       0.00000000E+00,  0.00000000E+00, -7.45375000E+02,
                       4.37967000E+00])))

species(name=u'He',
        atoms='He:1',
        thermo=(NASA([200.00, 1000.00],
                     [ 2.50000000E+00,  0.00000000E+00,  0.00000000E+00,
                       0.00000000E+00,  0.00000000E+00, -7.45375000E+02,
                       9.28724000E-01]),
                NASA([1000.00, 6000.00],
                     [ 2.50000000E+00,  0.00000000E+00,  0.00000000E+00,
                       0.00000000E+00,  0.00000000E+00, -7.45375000E+02,
                       9.28724000E-01])))

species(name=u'Ne',
        atoms='Ne:1',
        thermo=(NASA([200.00, 1000.00],
                     [ 2.50000000E+00,  0.00000000E+00,  0.00000000E+00,
                       0.00000000E+00,  0.00000000E+00, -7.45375000E+02,
                       3.35532000E+00]),
                NASA([1000.00, 6000.00],
                     [ 2.50000000E+00,  0.00000000E+00,  0.00000000E+00,
                       0.00000000E+00,  0.00000000E+00, -7.45375000E+02,
                       3.35532000E+00])))

species(name=u'N2',
        atoms='N:2',
        thermo=(NASA([200.00, 1000.00],
                     [ 3.53101000E+00, -1.23661000E-04, -5.02999000E-07,
                       2.43531000E-09, -1.40881000E-12, -1.04698000E+03,
                       2.96747000E+00]),
                NASA([1000.00, 6000.00],
                     [ 2.95258000E+00,  1.39690000E-03, -4.92632000E-07,
                       7.86010000E-11, -4.60755000E-15, -9.23949000E+02,
                       5.87189000E+00])))

species(name=u'C2H4(2)',
        atoms='H:4 C:2',
        thermo=(NASA([100.00, 979.36],
                     [ 3.97471606E+00, -4.75844285E-03,  4.16783770E-05,
                      -4.51392516E-08,  1.54224761E-11,  4.91540746E+03,
                       3.62430844E+00]),
                NASA([979.36, 5000.00],
                     [ 3.55660610E+00,  1.10627464E-02, -4.17019079E-06,
                       7.85586770E-10, -5.70060829E-14,  4.32046489E+03,
                       2.17719479E+00])))

species(name=u'C4H8-1(3)',
        atoms='H:8 C:4',
        thermo=(NASA([100.00, 1007.28],
                     [ 2.58772906E+00,  2.32777969E-02,  1.93412349E-05,
                      -3.55496333E-08,  1.36906009E-11, -1.91872926E+03,
                       1.45750618E+01]),
                NASA([1007.28, 5000.00],
                     [ 7.20517168E+00,  2.36361568E-02, -9.03150028E-06,
                       1.65392666E-09, -1.16019260E-13, -3.79733937E+03,
                      -1.24426257E+01])))

species(name=u'C4H8-2(4)',
        atoms='H:8 C:4',
        thermo=(NASA([100.00, 1157.79],
                     [ 2.51998327E+00,  2.76812799E-02,  9.43783469E-07,
                      -1.25009101E-08,  4.67144666E-12, -3.34374767E+03,
                       1.30195623E+01]),
                NASA([1157.79, 5000.00],
                     [ 6.04225708E+00,  2.60072350E-02, -1.04843374E-05,
                       1.90880922E-09, -1.30600505E-13, -4.86276511E+03,
                      -7.52715109E+00])))

species(name=u'C4H6(7)',
        atoms='H:6 C:4',
        thermo=(NASA([100.00, 946.05],
                     [ 2.80599310E+00,  1.02584471E-02,  6.17260255E-05,
                      -9.01642687E-08,  3.59116961E-11,  1.16584972E+04,
                       1.20621434E+01]),
                NASA([946.05, 5000.00],
                     [ 1.24693720E+01,  1.00553901E-02, -2.41206872E-06,
                       4.57077303E-10, -3.93160571E-14,  8.01077795E+03,
                      -4.36374720E+01])))

species(name=u'C3H6(24)',
        atoms='H:6 C:3',
        thermo=(NASA([100.00, 983.75],
                     [ 3.31912102E+00,  8.17958674E-03,  3.34736123E-05,
                      -4.36193684E-08,  1.58213364E-11,  7.49325328E+02,
                       9.54025058E+00]),
                NASA([983.75, 5000.00],
                     [ 5.36755173E+00,  1.70743019E-02, -6.35107626E-06,
                       1.16619529E-09, -8.27620279E-14, -4.87138326E+02,
                      -4.54467529E+00])))

species(name=u'H2(47)',
        atoms='H:2',
        thermo=(NASA([100.00, 1959.08],
                     [ 3.43536412E+00,  2.12710353E-04, -2.78625043E-07,
                       3.40267167E-10, -7.76031998E-14, -1.03135984E+03,
                      -3.90841732E+00]),
                NASA([1959.08, 5000.00],
                     [ 2.78816583E+00,  5.87640942E-04,  1.59010417E-07,
                      -5.52739026E-11,  4.34310984E-15, -5.96144270E+02,
                       1.12732655E-01])))

species(name=u'C6H10k(95)',
        atoms='H:10 C:6',
        thermo=(NASA([100.00, 1036.89],
                     [ 1.50874221E+00,  4.27939676E-02,  1.00407781E-05,
                      -3.76644958E-08,  1.56320088E-11,  7.74480595E+03,
                       2.33493905E+01]),
                NASA([1036.89, 5000.00],
                     [ 1.16601041E+01,  3.10397815E-02, -1.26024374E-05,
                       2.38495409E-09, -1.70150727E-13,  4.16633351E+03,
                      -3.30972272E+01])))

species(name=u'C8H12(99)',
        atoms='H:12 C:8',
        thermo=(NASA([100.00, 1002.94],
                     [ 1.69489980E-02,  7.28189377E-02, -2.16585698E-05,
                      -2.40807783E-08,  1.44597041E-11,  1.38562447E+04,
                       3.07679077E+01]),
                NASA([1002.94, 5000.00],
                     [ 1.77276883E+01,  3.45993801E-02, -1.29781828E-05,
                       2.37500136E-09, -1.67643536E-13,  8.67334638E+03,
                      -6.28559377E+01])))

species(name=u'C6H10(123)',
        atoms='H:10 C:6',
        thermo=(NASA([100.00, 1020.63],
                     [ 9.97427413E-01,  5.59777045E-02, -2.05880600E-05,
                      -1.17182304E-08,  8.13452041E-12,  6.30749855E+03,
                       2.38941836E+01]),
                NASA([1020.63, 5000.00],
                     [ 1.33828218E+01,  2.83661253E-02, -1.07663110E-05,
                       1.95749020E-09, -1.36589418E-13,  2.68926840E+03,
                      -4.14511818E+01])))

species(name=u'C8H14(130)',
        atoms='H:14 C:8',
        thermo=(NASA([100.00, 1014.29],
                     [-3.67121846E-01,  8.14233516E-02, -3.11110886E-05,
                      -1.65487757E-08,  1.19185866E-11, -3.02333684E+03,
                       3.00035003E+01]),
                NASA([1014.29, 5000.00],
                     [ 1.79686767E+01,  3.98264136E-02, -1.50150741E-05,
                       2.72531006E-09, -1.90287561E-13, -8.32275149E+03,
                      -6.65042554E+01])))

species(name=u'C4H8(151)',
        atoms='H:8 C:4',
        thermo=(NASA([100.00, 1061.33],
                     [ 2.52504770E+00,  2.64752782E-02,  7.08359238E-06,
                      -2.07731462E-08,  8.00430055E-12, -4.02607130E+03,
                       1.28857274E+01]),
                NASA([1061.33, 5000.00],
                     [ 6.48672669E+00,  2.49943921E-02, -9.83283171E-06,
                       1.79343299E-09, -1.24008235E-13, -5.62452310E+03,
                      -1.00316397E+01])))

species(name=u'CH4(295)',
        atoms='H:4 C:1',
        thermo=(NASA([100.00, 1084.12],
                     [ 4.20541524E+00, -5.35557362E-03,  2.51123265E-05,
                      -2.13762843E-08,  5.97523937E-12, -1.01619433E+04,
                      -9.21279283E-01]),
                NASA([1084.12, 5000.00],
                     [ 9.08265721E-01,  1.14540858E-02, -4.57173828E-06,
                       8.29191671E-10, -5.66314895E-14, -9.71997444E+03,
                       1.39930944E+01])))

species(name=u'C5H10(299)',
        atoms='H:10 C:5',
        thermo=(NASA([100.00, 1883.68],
                     [ 2.29195787E+00,  4.21076449E-02, -1.49304794E-05,
                      -1.22102583E-10,  5.99441346E-13, -4.98138150E+03,
                       1.67887076E+01]),
                NASA([1883.68, 5000.00],
                     [ 1.47438472E+01,  2.72460315E-02, -1.23172689E-05,
                       2.21660273E-09, -1.44084857E-13, -1.17269008E+04,
                      -5.66226025E+01])))

species(name=u'C5H10(300)',
        atoms='H:10 C:5',
        thermo=(NASA([100.00, 960.03],
                     [ 1.92494941E+00,  3.23872757E-02,  3.28626489E-05,
                      -6.30221575E-08,  2.59714460E-11, -5.50776492E+03,
                       1.86664331E+01]),
                NASA([960.03, 5000.00],
                     [ 1.12167303E+01,  2.64314616E-02, -9.01591566E-06,
                       1.60298644E-09, -1.13436933E-13, -8.80144986E+03,
                      -3.36443365E+01])))

species(name=u'C5H10(301)',
        atoms='H:10 C:5',
        thermo=(NASA([100.00, 1065.88],
                     [ 1.83973645E+00,  3.88165649E-02,  3.95415802E-06,
                      -2.48620336E-08,  1.01608534E-11, -6.45875726E+03,
                       1.88194915E+01]),
                NASA([1065.88, 5000.00],
                     [ 8.87931728E+00,  3.15047857E-02, -1.26438740E-05,
                       2.33666558E-09, -1.63001335E-13, -9.04475166E+03,
                      -2.06827600E+01])))

species(name=u'C2H6(310)',
        atoms='H:6 C:2',
        thermo=(NASA([100.00, 1012.42],
                     [ 3.72239291E+00,  1.65083841E-03,  3.44175530E-05,
                      -3.76858229E-08,  1.24450657E-11, -1.15575901E+04,
                       4.68247999E+00]),
                NASA([1012.42, 5000.00],
                     [ 2.82848257E+00,  1.73040568E-02, -6.73334245E-06,
                       1.23742024E-09, -8.65676410E-14, -1.19978080E+04,
                       5.93811707E+00])))

species(name=u'C6H12(573)',
        atoms='H:12 C:6',
        thermo=(NASA([100.00, 1018.92],
                     [ 1.21827324E+00,  4.88303598E-02,  8.49335826E-06,
                      -3.91899735E-08,  1.67107196E-11, -8.55522126E+03,
                       2.43074946E+01]),
                NASA([1018.92, 5000.00],
                     [ 1.16698119E+01,  3.59250755E-02, -1.39120664E-05,
                       2.55991991E-09, -1.79822160E-13, -1.21450086E+04,
                      -3.34751762E+01])))

species(name=u'C3H8(583)',
        atoms='H:8 C:3',
        thermo=(NASA([100.00, 989.99],
                     [ 3.06336167E+00,  1.29214561E-02,  3.47032808E-05,
                      -4.70946154E-08,  1.71384141E-11, -1.43905789E+04,
                       1.07835592E+01]),
                NASA([989.99, 5000.00],
                     [ 5.60440043E+00,  2.19528785E-02, -8.22080610E-06,
                       1.50103993E-09, -1.05635358E-13, -1.58394038E+04,
                      -6.22623300E+00])))

species(name=u'C8H14(586)',
        atoms='H:14 C:8',
        thermo=(NASA([100.00, 1506.76],
                     [ 5.49675181E-02,  8.43985440E-02, -5.64633487E-05,
                       1.98661295E-08, -2.94599969E-12, -7.77393079E+02,
                       2.95663347E+01]),
                NASA([1506.76, 5000.00],
                     [ 1.39949012E+01,  4.73919655E-02, -1.96226018E-05,
                       3.56583689E-09, -2.41458224E-13, -4.97819756E+03,
                      -4.34005510E+01])))

species(name=u'C4H10(590)',
        atoms='H:10 C:4',
        thermo=(NASA([100.00, 1147.60],
                     [ 2.16918413E+00,  3.43904632E-02, -1.61564236E-06,
                      -1.30726562E-08,  5.17350451E-12, -1.72505136E+04,
                       1.46546701E+01]),
                NASA([1147.60, 5000.00],
                     [ 6.78903089E+00,  3.03598162E-02, -1.21262050E-05,
                       2.19945025E-09, -1.50289312E-13, -1.91057969E+04,
                      -1.17329103E+01])))

species(name=u'S(1032)',
        atoms='H:14 C:8',
        thermo=(NASA([100.00, 1016.25],
                     [-1.96777655E-01,  7.73097837E-02, -2.22069863E-05,
                      -2.37965356E-08,  1.39851151E-11, -2.84093532E+03,
                       3.12908370E+01]),
                NASA([1016.25, 5000.00],
                     [ 1.72431734E+01,  4.07120734E-02, -1.54898359E-05,
                       2.82734689E-09, -1.98026375E-13, -8.04042418E+03,
                      -6.12697843E+01])))

species(name=u'S(1118)',
        atoms='H:14 C:8',
        thermo=(NASA([100.00, 999.32],
                     [-8.27296041E-02,  7.33926821E-02, -9.70961131E-06,
                      -3.77339221E-08,  1.91784792E-11, -2.27794802E+03,
                       3.16114703E+01]),
                NASA([999.32, 5000.00],
                     [ 1.74908493E+01,  3.99675318E-02, -1.49508424E-05,
                       2.72972667E-09, -1.92366979E-13, -7.63361766E+03,
                      -6.23819175E+01])))

species(name=u'S(2006)',
        atoms='H:14 C:7',
        thermo=(NASA([100.00, 1137.87],
                     [ 3.77000199E-01,  6.84581137E-02, -2.35458993E-05,
                      -8.78916695E-09,  5.80698771E-12, -1.04276840E+04,
                       2.98245651E+01]),
                NASA([1137.87, 5000.00],
                     [ 1.29448813E+01,  4.42102095E-02, -1.78572583E-05,
                       3.27300063E-09, -2.25635477E-13, -1.45781742E+04,
                      -3.81015599E+01])))

species(name=u'S(2206)',
        atoms='H:14 C:8',
        thermo=(NASA([100.00, 1061.60],
                     [-2.92612015E-01,  8.13598166E-02, -3.75111047E-05,
                      -5.26746011E-09,  6.79996745E-12, -3.15203310E+03,
                       3.11249298E+01]),
                NASA([1061.60, 5000.00],
                     [ 1.65258017E+01,  4.22160438E-02, -1.64331635E-05,
                       2.99218456E-09, -2.07335165E-13, -8.08806756E+03,
                      -5.74492182E+01])))

species(name=u'S(2298)',
        atoms='H:12 C:6',
        thermo=(NASA([100.00, 727.96],
                     [ 9.39440133E-01,  7.36827282E-02, -7.88408848E-05,
                       6.61457863E-08, -2.57040766E-11, -8.86666114E+03,
                       2.10074400E+01]),
                NASA([727.96, 5000.00],
                     [ 3.15400112E+00,  5.47777314E-02, -2.60055290E-05,
                       5.04732853E-09, -3.55800709E-13, -9.01059211E+03,
                       1.22525714E+01])))

species(name=u'S(2521)',
        atoms='H:14 C:7',
        thermo=(NASA([100.00, 1054.67],
                     [ 4.65448694E-01,  6.48479495E-02, -9.56906733E-06,
                      -2.58210160E-08,  1.23868753E-11, -1.13879550E+04,
                       2.92560896E+01]),
                NASA([1054.67, 5000.00],
                     [ 1.32840013E+01,  4.31737590E-02, -1.70613062E-05,
                       3.13615581E-09, -2.18574261E-13, -1.55902553E+04,
                      -4.03721053E+01])))

species(name=u'S(3090)',
        atoms='H:18 C:10',
        thermo=(NASA([100.00, 1038.10],
                     [-1.63606842E+00,  1.05948223E-01, -4.48721255E-05,
                      -1.37610845E-08,  1.19267863E-11, -9.13856725E+03,
                       4.08578356E+01]),
                NASA([1038.10, 5000.00],
                     [ 2.12270975E+01,  5.35110627E-02, -2.06291097E-05,
                       3.76028699E-09, -2.61802446E-13, -1.58068004E+04,
                      -7.95529940E+01])))

species(name=u'S(3259)',
        atoms='H:18 C:10',
        thermo=(NASA([100.00, 1188.78],
                     [-1.95300717E+00,  1.15046892E-01, -7.59923563E-05,
                       2.20571103E-08, -1.46154816E-12, -1.03349424E+04,
                       4.06077933E+01]),
                NASA([1188.78, 5000.00],
                     [ 2.15567328E+01,  5.36921349E-02, -2.09728234E-05,
                       3.76285270E-09, -2.55770737E-13, -1.71787854E+04,
                      -8.21540077E+01])))

species(name=u'S(3481)',
        atoms='H:18 C:10',
        thermo=(NASA([100.00, 1091.06],
                     [-1.75140178E+00,  1.10205167E-01, -6.07838718E-05,
                       5.37602654E-09,  4.56468895E-12, -9.27267051E+03,
                       3.99141768E+01]),
                NASA([1091.06, 5000.00],
                     [ 2.07353004E+01,  5.46510751E-02, -2.13704545E-05,
                       3.87875579E-09, -2.67347996E-13, -1.57797898E+04,
                      -7.78643522E+01])))

species(name=u'S(4998)',
        atoms='H:22 C:12',
        thermo=(NASA([100.00, 1545.98],
                     [-3.63982575E+00,  1.46277313E-01, -1.06245687E-04,
                       3.99459838E-08, -6.08116539E-12, -1.64451161E+04,
                       5.02361292E+01]),
                NASA([1545.98, 5000.00],
                     [ 2.96110895E+01,  6.02455489E-02, -2.27728212E-05,
                       3.95039351E-09, -2.60340381E-13, -2.67261873E+04,
                      -1.24666412E+02])))

species(name=u'S(5903)',
        atoms='H:22 C:12',
        thermo=(NASA([100.00, 1058.13],
                     [-3.08446328E+00,  1.34684514E-01, -6.78305181E-05,
                      -3.42336914E-09,  9.77618621E-12, -1.52596700E+04,
                       5.03020801E+01]),
                NASA([1058.13, 5000.00],
                     [ 2.53077889E+01,  6.61528970E-02, -2.56807437E-05,
                       4.67303396E-09, -3.23935050E-13, -2.34402125E+04,
                      -9.85417869E+01])))

species(name=u'S(6038)',
        atoms='H:12 C:5',
        thermo=(NASA([100.00, 1035.89],
                     [ 1.72369892E+00,  4.01626686E-02,  1.63603121E-05,
                      -3.88326196E-08,  1.49780300E-11, -2.08560016E+04,
                       1.91510657E+01]),
                NASA([1035.89, 5000.00],
                     [ 7.87936773E+00,  3.91979316E-02, -1.52647178E-05,
                       2.77213157E-09, -1.91665486E-13, -2.33548825E+04,
                      -1.66693711E+01])))

species(name=u'S(6046)',
        atoms='H:14 C:6',
        thermo=(NASA([100.00, 1237.11],
                     [ 9.36204265E-01,  5.80630250E-02, -1.05197660E-05,
                      -1.36320323E-08,  5.73438090E-12, -2.34249411E+04,
                       2.40002576E+01]),
                NASA([1237.11, 5000.00],
                     [ 1.03159905E+01,  4.66440696E-02, -1.96015321E-05,
                       3.61730433E-09, -2.48224262E-13, -2.71926741E+04,
                      -2.90957696E+01])))

species(name=u'S(6190)',
        atoms='H:16 C:8',
        thermo=(NASA([100.00, 1248.81],
                     [-4.26647485E-01,  8.49512374E-02, -4.26977778E-05,
                       5.19306335E-09,  1.55005691E-12, -1.32580173E+04,
                       3.49638273E+01]),
                NASA([1248.81, 5000.00],
                     [ 1.57326579E+01,  4.96311262E-02, -2.00187569E-05,
                       3.62701466E-09, -2.46632049E-13, -1.85758476E+04,
                      -5.17182159E+01])))

species(name=u'S(6191)',
        atoms='H:16 C:8',
        thermo=(NASA([100.00, 1101.74],
                     [-3.02651568E-01,  8.10186813E-02, -2.80330966E-05,
                      -1.21354914E-08,  8.02001340E-12, -1.42199976E+04,
                       3.42611998E+01]),
                NASA([1101.74, 5000.00],
                     [ 1.51381607E+01,  5.00380884E-02, -1.99984150E-05,
                       3.66389588E-09, -2.53403166E-13, -1.91444395E+04,
                      -4.86355338E+01])))

species(name=u'S(6202)',
        atoms='H:12 C:5',
        thermo=(NASA([100.00, 1083.72],
                     [ 1.61174582E+00,  4.32467983E-02,  5.74950528E-06,
                      -2.75134571E-08,  1.08080045E-11, -2.00565292E+04,
                       1.98944429E+01]),
                NASA([1083.72, 5000.00],
                     [ 8.53683820E+00,  3.80814435E-02, -1.53303035E-05,
                       2.81977580E-09, -1.95507768E-13, -2.27551513E+04,
                      -1.95975419E+01])))

species(name=u'S(6211)',
        atoms='H:14 C:6',
        thermo=(NASA([100.00, 1048.16],
                     [ 8.83603407E-01,  5.70449582E-02, -2.15511769E-06,
                      -2.85512365E-08,  1.26618641E-11, -2.27982664E+04,
                       2.50352381E+01]),
                NASA([1048.16, 5000.00],
                     [ 1.11354266E+01,  4.25244017E-02, -1.65829595E-05,
                       3.01864905E-09, -2.09013581E-13, -2.62988561E+04,
                      -3.13529752E+01])))

species(name=u'S(6347)',
        atoms='H:18 C:8',
        thermo=(NASA([100.00, 1950.39],
                     [-8.85253472E-01,  9.40525134E-02, -5.49401942E-05,
                       1.58319910E-08, -1.84186830E-12, -2.86089074E+04,
                       3.54764932E+01]),
                NASA([1950.39, 5000.00],
                     [ 2.30699897E+01,  4.49237816E-02, -1.71567286E-05,
                       2.91725571E-09, -1.86477663E-13, -3.79533974E+04,
                      -9.60967099E+01])))

species(name=u'S(6385)',
        atoms='H:16 C:8',
        thermo=(NASA([100.00, 1101.74],
                     [-3.02651568E-01,  8.10186813E-02, -2.80330966E-05,
                      -1.21354914E-08,  8.02001340E-12, -1.42199976E+04,
                       3.42611998E+01]),
                NASA([1101.74, 5000.00],
                     [ 1.51381607E+01,  5.00380884E-02, -1.99984150E-05,
                       3.66389588E-09, -2.53403166E-13, -1.91444395E+04,
                      -4.86355338E+01])))

species(name=u'S(6486)',
        atoms='H:10 C:4',
        thermo=(NASA([100.00, 987.08],
                     [ 2.18594095E+00,  3.04312883E-02,  1.83387931E-05,
                      -4.04090927E-08,  1.64481872E-11, -1.82080408E+04,
                       1.37947641E+01]),
                NASA([987.08, 5000.00],
                     [ 8.84811268E+00,  2.61183046E-02, -9.57929598E-06,
                       1.72895160E-09, -1.21006821E-13, -2.06283634E+04,
                      -2.38575760E+01])))

species(name=u'S(6643)',
        atoms='H:14 C:6',
        thermo=(NASA([100.00, 1002.79],
                     [ 9.62511884E-01,  5.35099673E-02,  1.32037900E-05,
                      -4.70268617E-08,  1.98557427E-11, -2.36936864E+04,