units(length='cm', time='s', quantity='mol', act_energy='kcal/mol')

ideal_gas(name='gas',
          elements="H D T C Ci O Oi N Ne Ar He Si S Cl X",
          species="""Ar          Ne          N2          He(2)
                     CH4(3)      H2(4)       C2H6(5)     CH3(6)
                     C3H8(7)     H(8)        C2H5(9)     C4H8(10)
                     C2H4(11)    C2H2(51)    C4H6(119)   C6H10(141)
                     C4H6a(152)  C6H10(167)  C4H6(183)   C6H10(189)
                     C8H12(239)  C4H6(257)   C6H10(262)  C4H6b(275)
                     C6H10(280)  C4H8(281)   C6H10(323)  C6H10(393)
                     C6H10(748)  C6H10(891)  S(1346)     S(1723)
                     S(2166)     S(3857)     S(5651)""",
          reactions='gas-*',
          transport='Mix',
          initial_state=state(temperature=300.0, pressure=OneAtm))

ideal_interface(name='surface1',
                elements="H D T C Ci O Oi N Ne Ar He Si S Cl X",
                species="""X(1)        HX(12)      HeX(84)     C2H5X(87)
                          C2H3X(93)   C4H7X(94)   C4H7X(95)   C4H7X(96)
                          C4H7X(97)   C2H4X(99)   C2H2X(116)  SX(117)
                          SX(118)     C4H9X(120)  C4H9X(121)  C2H2X(125)
                          SX(140)     C4H6X(153)  SX(174)     SX(188)
                          C4H7X(226)  C4H7X(227)  SX(231)     SX(233)
                          SX(234)     SX(261)     SX(279)     C4H6X(298)
                          SX(306)     SX(322)     SX(361)     SX(392)
                          SX(424)     SX(434)     C4H7X(500)  SX(551)
                          SX(638)     SX(750)     SX(1148)    SX(1347)
                          SX(1802)    SX(1900)    SX(3187)    SX(3258)
                          SX(3342)    SX(3470)    SX(5152)""",
                site_density=2.72e-09,
                phases="gas",
          reactions='surface1-*',
                initial_state=state(temperature=300.0, pressure=OneAtm))

#-------------------------------------------------------------------------------
# Element data
#-------------------------------------------------------------------------------

element(symbol=u'X', atomic_mass=195.083)
element(symbol=u'Ci', atomic_mass=13.003)
element(symbol=u'D', atomic_mass=2.014)
element(symbol=u'Oi', atomic_mass=18.0)
element(symbol=u'T', atomic_mass=3.016)
#-------------------------------------------------------------------------------
# Species data
#-------------------------------------------------------------------------------

species(name=u'Ar',
        atoms='Ar:1',
        thermo=(NASA([200.00, 1000.00],
                     [ 2.50000000E+00,  0.00000000E+00,  0.00000000E+00,
                       0.00000000E+00,  0.00000000E+00, -7.45375000E+02,
                       4.37967000E+00]),
                NASA([1000.00, 6000.00],
                     [ 2.50000000E+00,  0.00000000E+00,  0.00000000E+00,
                       0.00000000E+00,  0.00000000E+00, -7.45375000E+02,
                       4.37967000E+00])),
        transport=gas_transport(geom='atom',
                                diam=3.33,
                                well_depth=136.5))

species(name=u'Ne',
        atoms='Ne:1',
        thermo=(NASA([200.00, 1000.00],
                     [ 2.50000000E+00,  0.00000000E+00,  0.00000000E+00,
                       0.00000000E+00,  0.00000000E+00, -7.45375000E+02,
                       3.35532000E+00]),
                NASA([1000.00, 6000.00],
                     [ 2.50000000E+00,  0.00000000E+00,  0.00000000E+00,
                       0.00000000E+00,  0.00000000E+00, -7.45375000E+02,
                       3.35532000E+00])),
        transport=gas_transport(geom='atom',
                                diam=3.758,
                                well_depth=148.6))

species(name=u'N2',
        atoms='N:2',
        thermo=(NASA([200.00, 1000.00],
                     [ 3.53101000E+00, -1.23661000E-04, -5.02999000E-07,
                       2.43531000E-09, -1.40881000E-12, -1.04698000E+03,
                       2.96747000E+00]),
                NASA([1000.00, 6000.00],
                     [ 2.95258000E+00,  1.39690000E-03, -4.92632000E-07,
                       7.86010000E-11, -4.60755000E-15, -9.23949000E+02,
                       5.87189000E+00])),
        transport=gas_transport(geom='linear',
                                diam=3.621,
                                well_depth=97.53,
                                polar=1.76,
                                rot_relax=4.0))

species(name=u'He(2)',
        atoms='He:1',
        thermo=(NASA([200.00, 1000.00],
                     [ 2.50000000E+00,  0.00000000E+00,  0.00000000E+00,
                       0.00000000E+00,  0.00000000E+00, -7.45375000E+02,
                       9.28724000E-01]),
                NASA([1000.00, 6000.00],
                     [ 2.50000000E+00,  0.00000000E+00,  0.00000000E+00,
                       0.00000000E+00,  0.00000000E+00, -7.45375000E+02,
                       9.28724000E-01])),
        transport=gas_transport(geom='atom',
                                diam=2.576,
                                well_depth=10.2))

species(name=u'CH4(3)',
        atoms='H:4 C:1',
        thermo=(NASA([100.00, 1084.12],
                     [ 4.20541524E+00, -5.35557362E-03,  2.51123265E-05,
                      -2.13762843E-08,  5.97523937E-12, -1.01619433E+04,
                      -9.21279283E-01]),
                NASA([1084.12, 5000.00],
                     [ 9.08265721E-01,  1.14540858E-02, -4.57173828E-06,
                       8.29191671E-10, -5.66314895E-14, -9.71997444E+03,
                       1.39930944E+01])),
        transport=gas_transport(geom='nonlinear',
                                diam=3.746,
                                well_depth=141.4,
                                polar=2.6,
                                rot_relax=13.0))

species(name=u'H2(4)',
        atoms='H:2',
        thermo=(NASA([100.00, 1959.08],
                     [ 3.43536412E+00,  2.12710353E-04, -2.78625043E-07,
                       3.40267167E-10, -7.76031998E-14, -1.03135984E+03,
                      -3.90841732E+00]),
                NASA([1959.08, 5000.00],
                     [ 2.78816583E+00,  5.87640942E-04,  1.59010417E-07,
                      -5.52739026E-11,  4.34310984E-15, -5.96144270E+02,
                       1.12732655E-01])),
        transport=gas_transport(geom='linear',
                                diam=2.833,
                                well_depth=59.7))

species(name=u'C2H6(5)',
        atoms='H:6 C:2',
        thermo=(NASA([100.00, 1012.42],
                     [ 3.72239291E+00,  1.65083841E-03,  3.44175530E-05,
                      -3.76858229E-08,  1.24450657E-11, -1.15575901E+04,
                       4.68247999E+00]),
                NASA([1012.42, 5000.00],
                     [ 2.82848257E+00,  1.73040568E-02, -6.73334245E-06,
                       1.23742024E-09, -8.65676410E-14, -1.19978080E+04,
                       5.93811707E+00])),
        transport=gas_transport(geom='nonlinear',
                                diam=4.302,
                                well_depth=252.3,
                                rot_relax=1.5))

species(name=u'CH3(6)',
        atoms='H:3 C:1',
        thermo=(NASA([100.00, 697.71],
                     [ 3.96043098E+00,  5.92939934E-04,  8.78575390E-06,
                      -9.88030557E-09,  3.63234580E-12,  1.64218818E+04,
                       3.39865631E-01]),
                NASA([697.71, 5000.00],
                     [ 3.09511187E+00,  5.55429874E-03, -1.88158855E-06,
                       3.13335012E-10, -2.05195181E-14,  1.65426192E+04,
                       4.20297876E+00])),
        transport=gas_transport(geom='nonlinear',
                                diam=3.8,
                                well_depth=144.0))

species(name=u'C3H8(7)',
        atoms='H:8 C:3',
        thermo=(NASA([100.00, 989.99],
                     [ 3.06336167E+00,  1.29214561E-02,  3.47032808E-05,
                      -4.70946154E-08,  1.71384141E-11, -1.43905789E+04,
                       1.07835592E+01]),
                NASA([989.99, 5000.00],
                     [ 5.60440043E+00,  2.19528785E-02, -8.22080610E-06,
                       1.50103993E-09, -1.05635358E-13, -1.58394038E+04,
                      -6.22623300E+00])),
        transport=gas_transport(geom='nonlinear',
                                diam=4.982,
                                well_depth=266.801,
                                rot_relax=1.0))

species(name=u'H(8)',
        atoms='H:1',
        thermo=(NASA([100.00, 3459.60],
                     [ 2.50000000E+00,  9.24384602E-15, -1.36779837E-17,
                       6.66184769E-21, -1.00106912E-24,  2.54742178E+04,
                      -4.44972896E-01]),
                NASA([3459.60, 5000.00],
                     [ 2.49999999E+00,  9.20455546E-12, -3.58608293E-15,
                       6.15198922E-19, -3.92041801E-23,  2.54742178E+04,
                      -4.44972842E-01])),
        transport=gas_transport(geom='atom',
                                diam=2.05,
                                well_depth=145.0))

species(name=u'C2H5(9)',
        atoms='H:5 C:2',
        thermo=(NASA([100.00, 1006.87],
                     [ 3.68746539E+00,  3.06889693E-03,  2.55873112E-05,
                      -2.94076576E-08,  9.94076215E-12,  1.31153648E+04,
                       6.96684864E+00]),
                NASA([1006.87, 5000.00],
                     [ 3.53781010E+00,  1.37311636E-02, -5.29564638E-06,
                       9.71482858E-10, -6.80289490E-14,  1.26351790E+04,
                       5.15566048E+00])),
        transport=gas_transport(geom='nonlinear',
                                diam=4.302,
                                well_depth=252.3,
                                rot_relax=1.5))

species(name=u'C4H8(10)',
        atoms='H:8 C:4',
        thermo=(NASA([100.00, 1007.28],
                     [ 2.58772906E+00,  2.32777969E-02,  1.93412349E-05,
                      -3.55496333E-08,  1.36906009E-11, -1.91872926E+03,
                       1.45750618E+01]),
                NASA([1007.28, 5000.00],
                     [ 7.20517168E+00,  2.36361568E-02, -9.03150028E-06,
                       1.65392666E-09, -1.16019260E-13, -3.79733937E+03,
                      -1.24426257E+01])),
        transport=gas_transport(geom='nonlinear',
                                diam=5.176,
                                well_depth=357.002,
                                rot_relax=1.0))

species(name=u'C2H4(11)',
        atoms='H:4 C:2',
        thermo=(NASA([100.00, 979.36],
                     [ 3.97471606E+00, -4.75844285E-03,  4.16783770E-05,
                      -4.51392516E-08,  1.54224761E-11,  4.91540746E+03,
                       3.62430844E+00]),
                NASA([979.36, 5000.00],
                     [ 3.55660610E+00,  1.10627464E-02, -4.17019079E-06,
                       7.85586770E-10, -5.70060829E-14,  4.32046489E+03,
                       2.17719479E+00])),
        transport=gas_transport(geom='nonlinear',
                                diam=3.971,
                                well_depth=280.8,
                                rot_relax=1.5))

species(name=u'C2H2(51)',
        atoms='H:2 C:2',
        thermo=(NASA([100.00, 962.80],
                     [ 3.11331938E+00,  6.02058533E-03,  5.33031324E-06,
                      -1.10293378E-08,  4.62859887E-12,  2.62179845E+04,
                       4.37938268E+00]),
                NASA([962.80, 5000.00],
                     [ 5.02077795E+00,  4.22470269E-03, -1.42000136E-06,
                       2.56105133E-10, -1.84544863E-14,  2.55666188E+04,
                      -6.22588857E+00])),
        transport=gas_transport(geom='linear',
                                diam=4.1,
                                well_depth=209.0,
                                rot_relax=2.5))

species(name=u'C4H6(119)',
        atoms='H:6 C:4',
        thermo=(NASA([100.00, 946.05],
                     [ 2.80599310E+00,  1.02584471E-02,  6.17260255E-05,
                      -9.01642687E-08,  3.59116961E-11,  1.16584972E+04,
                       1.20621434E+01]),
                NASA([946.05, 5000.00],
                     [ 1.24693720E+01,  1.00553901E-02, -2.41206872E-06,
                       4.57077303E-10, -3.93160571E-14,  8.01077795E+03,
                      -4.36374720E+01])),
        transport=gas_transport(geom='nonlinear',
                                diam=5.18,
                                well_depth=357.002,
                                rot_relax=1.0))

species(name=u'C6H10(141)',
        atoms='H:10 C:6',
        thermo=(NASA([100.00, 1036.89],
                     [ 1.50874221E+00,  4.27939676E-02,  1.00407781E-05,
                      -3.76644958E-08,  1.56320088E-11,  7.74480595E+03,
                       2.33493905E+01]),
                NASA([1036.89, 5000.00],
                     [ 1.16601041E+01,  3.10397815E-02, -1.26024374E-05,
                       2.38495409E-09, -1.70150727E-13,  4.16633351E+03,
                      -3.30972272E+01])),
        transport=gas_transport(geom='nonlinear',
                                diam=5.648,
                                well_depth=385.401))

species(name=u'C4H6a(152)',
        atoms='H:6 C:4',
        thermo=(NASA([100.00, 950.38],
                     [ 3.41327601E+00, -4.60830638E-03,  9.57205603E-05,
                      -1.18800574E-07,  4.44495312E-11,  1.74039828E+04,
                       1.01517556E+01]),
                NASA([950.38, 5000.00],
                     [ 9.72156091E+00,  1.36879055E-02, -3.93842260E-06,
                       7.58710118E-10, -6.16013131E-14,  1.41795804E+04,
                      -3.06164436E+01])),
        transport=gas_transport(geom='nonlinear',
                                diam=5.503,
                                well_depth=381.31))

species(name=u'C6H10(167)',
        atoms='H:10 C:6',
        thermo=(NASA([100.00, 969.70],
                     [ 2.39493639E+00,  1.31308716E-02,  1.02019898E-04,
                      -1.35266841E-07,  5.06735576E-11, -2.55363631E+03,
                       1.63461006E+01]),
                NASA([969.70, 5000.00],
                     [ 1.20193596E+01,  2.96991246E-02, -1.06504175E-05,
                       2.03502649E-09, -1.52378829E-13, -7.06570658E+03,
                      -4.34309725E+01])),
        transport=gas_transport(geom='nonlinear',
                                diam=6.352,
                                well_depth=436.658))

species(name=u'C4H6(183)',
        atoms='H:6 C:4',
        thermo=(NASA([100.00, 1025.60],
                     [ 2.74635309E+00,  2.18189067E-02,  8.22353080E-06,
                      -2.14768137E-08,  8.55623695E-12,  1.75635641E+04,
                       1.27380675E+01]),
                NASA([1025.60, 5000.00],
                     [ 6.82078026E+00,  1.92338176E-02, -7.45621651E-06,
                       1.36536040E-09, -9.53194832E-14,  1.60280303E+04,
                      -1.04332859E+01])),
        transport=gas_transport(geom='nonlinear',
                                diam=5.186,
                                well_depth=360.421))

species(name=u'C6H10(189)',
        atoms='H:10 C:6',
        thermo=(NASA([100.00, 1020.63],
                     [ 9.97427413E-01,  5.59777045E-02, -2.05880600E-05,
                      -1.17182304E-08,  8.13452041E-12,  6.84996860E+03,
                       2.32490569E+01]),
                NASA([1020.63, 5000.00],
                     [ 1.33828218E+01,  2.83661253E-02, -1.07663110E-05,
                       1.95749020E-09, -1.36589418E-13,  3.23173845E+03,
                      -4.20963085E+01])),
        transport=gas_transport(geom='nonlinear',
                                diam=5.681,
                                well_depth=388.325))

species(name=u'C8H12(239)',
        atoms='H:12 C:8',
        thermo=(NASA([100.00, 1070.03],
                     [ 2.97686132E-03,  7.52872330E-02, -3.39859361E-05,
                      -6.02789637E-09,  6.65492625E-12,  3.39080793E+04,
                       3.21040324E+01]),
                NASA([1070.03, 5000.00],
                     [ 1.61078249E+01,  3.85289641E-02, -1.53230779E-05,
                       2.82113077E-09, -1.96670198E-13,  2.91193547E+04,
                      -5.29543724E+01])),
        transport=gas_transport(geom='nonlinear',
                                diam=6.448,
                                well_depth=443.042))

species(name=u'C4H6(257)',
        atoms='H:6 C:4',
        thermo=(NASA([100.00, 984.54],
                     [ 2.63758774E+00,  2.35736569E-02,  7.08744082E-06,
                      -2.35130541E-08,  1.01363111E-11,  1.83183897E+04,
                       1.26338870E+01]),
                NASA([984.54, 5000.00],
                     [ 7.91430062E+00,  1.72436337E-02, -6.28669477E-06,
                       1.12952987E-09, -7.88851301E-14,  1.65471267E+04,
                      -1.64596591E+01])),
        transport=gas_transport(geom='nonlinear',
                                diam=5.18,
                                well_depth=357.002,
                                rot_relax=1.0))

species(name=u'C6H10(262)',
        atoms='H:10 C:6',
        thermo=(NASA([100.00, 1020.63],
                     [ 9.97427413E-01,  5.59777045E-02, -2.05880600E-05,
                      -1.17182304E-08,  8.13452041E-12,  6.30749855E+03,
                       2.38941836E+01]),
                NASA([1020.63, 5000.00],
                     [ 1.33828218E+01,  2.83661253E-02, -1.07663110E-05,
                       1.95749020E-09, -1.36589418E-13,  2.68926840E+03,
                      -4.14511818E+01])),
        transport=gas_transport(geom='nonlinear',
                                diam=5.673,
                                well_depth=388.08))

species(name=u'C4H6b(275)',
        atoms='H:6 C:4',
        thermo=(NASA([100.00, 1192.69],
                     [ 2.80878200E+00,  2.23895758E-02,  9.23380750E-07,
                      -9.83906666E-09,  3.54556013E-12,  1.57266791E+04,
                       1.14196553E+01]),
                NASA([1192.69, 5000.00],
                     [ 5.56371963E+00,  2.16632316E-02, -8.86965733E-06,
                       1.61937470E-09, -1.10660344E-13,  1.44640250E+04,
                      -4.89514126E+00])),
        transport=gas_transport(geom='nonlinear',
                                diam=5.18,
                                well_depth=357.002,
                                rot_relax=1.0))

species(name=u'C6H10(280)',
        atoms='H:10 C:6',
        thermo=(NASA([100.00, 2066.82],
                     [ 1.96487466E+00,  5.04479236E-02, -2.24823496E-05,
                       3.26198053E-09,  2.73496389E-15,  6.31812967E+03,
                       1.91308704E+01]),
                NASA([2066.82, 5000.00],
                     [ 2.01362223E+01,  2.52311191E-02, -1.14030833E-05,
                       2.01775234E-09, -1.28532875E-13, -3.31865112E+03,
                      -8.68696867E+01])),
        transport=gas_transport(geom='nonlinear',
                                diam=5.747,
                                well_depth=398.446))

species(name=u'C4H8(281)',
        atoms='H:8 C:4',
        thermo=(NASA([100.00, 1157.79],
                     [ 2.51998327E+00,  2.76812799E-02,  9.43783469E-07,
                      -1.25009101E-08,  4.67144666E-12, -3.34374767E+03,
                       1.30195623E+01]),
                NASA([1157.79, 5000.00],
                     [ 6.04225708E+00,  2.60072350E-02, -1.04843374E-05,
                       1.90880922E-09, -1.30600505E-13, -4.86276511E+03,
                      -7.52715109E+00])),
        transport=gas_transport(geom='nonlinear',
                                diam=5.289,
                                well_depth=359.053))

species(name=u'C6H10(323)',
        atoms='H:10 C:6',
        thermo=(NASA([100.00, 1122.78],
                     [ 1.46684845E+00,  4.71514066E-02, -9.42741723E-06,
                      -1.33221128E-08,  6.31961252E-12,  6.52798365E+03,
                       2.25047068E+01]),
                NASA([1122.78, 5000.00],
                     [ 9.99431999E+00,  3.35595364E-02, -1.36975193E-05,
                       2.53063892E-09, -1.75468327E-13,  3.55492255E+03,
                      -2.43352419E+01])),
        transport=gas_transport(geom='nonlinear',
                                diam=5.721,
                                well_depth=395.658))

species(name=u'C6H10(393)',
        atoms='H:10 C:6',
        thermo=(NASA([100.00, 1045.42],
                     [ 1.54967147E+00,  4.21895837E-02,  1.04895346E-05,
                      -3.69750926E-08,  1.50988524E-11,  6.71774665E+03,
                       2.39491991E+01]),
                NASA([1045.42, 5000.00],
                     [ 1.12124240E+01,  3.19133588E-02, -1.30691489E-05,
                       2.47430092E-09, -1.76160956E-13,  3.23863001E+03,
                      -3.00742335E+01])),
        transport=gas_transport(geom='nonlinear',
                                diam=5.721,
                                well_depth=395.658))

species(name=u'C6H10(748)',
        atoms='H:10 C:6',
        thermo=(NASA([100.00, 1057.19],
                     [ 1.32003537E+00,  4.84544999E-02, -5.79624644E-06,
                      -2.18049081E-08,  1.02541120E-11,  2.75327172E+03,
                       2.13746403E+01]),
                NASA([1057.19, 5000.00],
                     [ 1.18393426E+01,  3.09141412E-02, -1.24938257E-05,
                       2.33617137E-09, -1.64723228E-13, -7.14884612E+02,
                      -3.58433808E+01])),
        transport=gas_transport(geom='nonlinear',
                                diam=5.795,
                                well_depth=406.008))

species(name=u'C6H10(891)',
        atoms='H:10 C:6',
        thermo=(NASA([100.00, 1887.77],
                     [ 1.36266611E+00,  5.33836471E-02, -2.84334978E-05,
                       6.65302836E-09, -5.57274529E-13,  1.10328598E+04,
                       2.18060535E+01]),
                NASA([1887.77, 5000.00],
                     [ 1.68319647E+01,  2.58716218E-02, -1.07569847E-05,
                       1.88821837E-09, -1.21952028E-13,  4.25406396E+03,
                      -6.51387108E+01])),
        transport=gas_transport(geom='nonlinear',
                                diam=5.897,
                                well_depth=407.126))

species(name=u'S(1346)',
        atoms='H:10 C:6',
        thermo=(NASA([100.00, 2219.83],
                     [ 1.64835665E+00,  5.39721027E-02, -2.96147087E-05,
                       7.43575586E-09, -7.36792306E-13,  1.19178719E+04,
                       2.02865048E+01]),
                NASA([2219.83, 5000.00],
                     [ 1.61969386E+01,  2.77563910E-02, -1.19000043E-05,
                       2.11560868E-09, -1.37629767E-13,  5.45880681E+03,
                      -6.15034539E+01])),
        transport=gas_transport(geom='nonlinear',
                                diam=5.822,
                                well_depth=396.701))

species(name=u'S(1723)',
        atoms='H:10 C:6',
        thermo=(NASA([100.00, 1283.77],
                     [ 1.42641004E+00,  4.93159738E-02, -1.81832950E-05,
                      -2.59754720E-09,  2.25903596E-12,  1.01950491E+04,
                       2.28566989E+01]),
                NASA([1283.77, 5000.00],
                     [ 1.03389716E+01,  3.36379701E-02, -1.39932731E-05,
                       2.56365479E-09, -1.74872562E-13,  6.91029851E+03,
                      -2.62484456E+01])),
        transport=gas_transport(geom='nonlinear',
                                diam=5.958,
                                well_depth=411.834))

species(name=u'S(2166)',
        atoms='H:10 C:6',
        thermo=(NASA([100.00, 1196.05],
                     [ 1.54706731E+00,  4.60846710E-02, -9.51002646E-06,
                      -1.08679387E-08,  4.89713266E-12,  9.98498796E+03,
                       2.19558798E+01]),
                NASA([1196.05, 5000.00],
                     [ 9.54067150E+00,  3.47325652E-02, -1.45632066E-05,
                       2.70088483E-09, -1.86502312E-13,  6.97267490E+03,
                      -2.26388574E+01])),
        transport=gas_transport(geom='nonlinear',
                                diam=5.958,
                                well_depth=411.834))

species(name=u'S(3857)',
        atoms='H:10 C:6',
        thermo=(NASA([100.00, 1057.19],
                     [ 1.32003537E+00,  4.84544999E-02, -5.79624644E-06,
                      -2.18049081E-08,  1.02541120E-11,  1.09260509E+04,
                       2.24802124E+01]),
                NASA([1057.19, 5000.00],
                     [ 1.18393426E+01,  3.09141412E-02, -1.24938257E-05,
                       2.33617137E-09, -1.64723228E-13,  7.45789461E+03,
                      -3.47378087E+01])),
        transport=gas_transport(geom='nonlinear',
                                diam=5.848,
                                well_depth=399.543))

species(name=u'S(5651)',
        atoms='H:10 C:6',
        thermo=(NASA([100.00, 1662.92],
                     [ 9.90414462E-01,  5.90222833E-02, -3.83343474E-05,
                       1.28367823E-08, -1.76551858E-12,  1.14587699E+04,
                       2.21533697E+01]),
                NASA([1662.92, 5000.00],
                     [ 1.35171592E+01,  2.88904621E-02, -1.11547009E-05,
                       1.94046581E-09, -1.27394168E-13,  7.29256080E+03,
                      -4.46517655E+01])),
        transport=gas_transport(geom='nonlinear',
                                diam=5.84,
                                well_depth=389.725))

species(name=u'X(1)',
        atoms='X:1',
        thermo=(NASA([100.00, 1554.80],
                     [ 7.10139498E-03, -4.25619522E-05,  8.98533016E-08,
                      -7.80193649E-11,  2.32465471E-14, -8.76101712E-01,
                      -3.11211229E-02]),
                NASA([1554.80, 5000.00],
                     [ 1.60299900E-01, -2.52235409E-04,  1.14181275E-07,
                      -1.21471653E-11,  3.85790025E-16, -7.08100885E+01,
                      -9.09527530E-01])))

species(name=u'HX(12)',
        atoms='H:1 X:1',
        thermo=(NASA([100.00, 952.91],
                     [-3.80965452E-01,  5.47228709E-03,  2.60912778E-06,
                      -9.64961980E-09,  4.63946753E-12, -2.51118360E+04,
                       1.01725550E+00]),
                NASA([952.91, 5000.00],
                     [ 2.80339655E+00, -5.41047017E-04,  4.99507978E-07,
                      -7.54963647E-11,  3.06772366E-15, -2.60525854E+04,
                      -1.59436787E+01])))

species(name=u'HeX(84)',
        atoms='X:1 He:1',
        thermo=(NASA([100.00, 3459.60],
                     [ 2.50000000E+00,  9.24384602E-15, -1.36779837E-17,
                       6.66184769E-21, -1.00106912E-24,  2.51045171E+03,
                      -1.04087993E+01]),
                NASA([3459.60, 5000.00],
                     [ 2.49999999E+00,  9.20455546E-12, -3.58608293E-15,
                       6.15198922E-19, -3.92041801E-23,  2.51045171E+03,
                      -1.04087992E+01])))

species(name=u'C2H5X(87)',
        atoms='H:5 C:2 X:1',
        thermo=(NASA([100.00, 803.81],
                     [-1.64625424E+00,  3.89626488E-02, -4.31128887E-05,
                       2.97076939E-08, -8.80222915E-12, -1.01038978E+04,
                       9.27323637E+00]),
                NASA([803.81, 5000.00],
                     [ 1.97598112E+00,  2.09382766E-02, -9.47916922E-06,
                       1.81392948E-09, -1.27206354E-13, -1.06862466E+04,
                      -7.41107956E+00])))

species(name=u'C2H3X(93)',
        atoms='H:3 C:2 X:1',
        thermo=(NASA([100.00, 928.62],
                     [ 3.83091018E+00, -8.76381562E-03,  6.97956896E-05,
                      -8.67969174E-08,  3.33218121E-11,  1.60029382E+03,
                      -1.81151753E+01]),
                NASA([928.62, 5000.00],
                     [ 8.78054562E+00,  1.92497720E-03,  8.25825014E-07,
                      -1.63749818E-10,  5.71728318E-15, -6.99109301E+02,
                      -4.90588618E+01])))

species(name=u'C4H7X(94)',
        atoms='H:7 C:4 X:1',
        thermo=(NASA([100.00, 971.02],
                     [ 2.64365035E+00,  1.79007589E-02,  4.24443189E-05,
                      -6.44028479E-08,  2.49593993E-11, -5.89825374E+03,
                      -6.69991651E+00]),
                NASA([971.02, 5000.00],
                     [ 9.25871667E+00,  2.04064152E-02, -7.39143670E-06,
                       1.37021231E-09, -9.94133357E-14, -8.58573787E+03,
                      -4.56426102E+01])))

species(name=u'C4H7X(95)',
        atoms='H:7 C:4 X:1',
        thermo=(NASA([100.00, 986.67],
                     [ 2.45798205E+00,  2.47217336E-02,  2.01285964E-05,
                      -4.02735564E-08,  1.62485845E-11,  2.50393331E+03,
                      -5.12991781E+00]),
                NASA([986.67, 5000.00],
                     [ 8.87898065E+00,  2.09043993E-02, -7.83851223E-06,
                       1.44076477E-09, -1.02346878E-13,  1.55577199E+02,
                      -4.15007572E+01])))

species(name=u'C4H7X(96)',
        atoms='H:7 C:4 X:1',
        thermo=(NASA([100.00, 965.06],
                     [ 2.56877619E+00,  1.97500674E-02,  3.72961301E-05,
                      -6.04017092E-08,  2.39989018E-11, -6.16967460E+03,
                      -8.56564322E+00]),
                NASA([965.06, 5000.00],
                     [ 9.89778724E+00,  1.86142959E-02, -6.38884453E-06,
                       1.17309353E-09, -8.55406646E-14, -8.94596581E+03,