units(length='cm', time='s', quantity='mol', act_energy='kcal/mol')

ideal_gas(name='gas',
          elements="H D T C Ci O Oi N Ne Ar He Si S Cl X",
          species="""n-heptane   Ar          He          Ne
                     N2          C2H4(2)     C4H8-1(3)   C4H8-2(4)
                     H(6)        C6H12-1(7)  C6H12-2(8)  C6H12-3(9)
                     C6H12(10)   C6H12(11)   C4H6(54)    C6H8(56)
                     H2(190)     C2H6(343)   CH4(358)    C8H10(440)
                     C8H12(658)""",
          reactions='gas-*',
          transport='Mix',
          initial_state=state(temperature=300.0, pressure=OneAtm))

ideal_interface(name='surface1',
                elements="H D T C Ci O Oi N Ne Ar He Si S Cl X",
                species="""X(1)        C2H5X(5)    HX(80)      C2H3X(137)
                          CH3X(139)   C4H7X(140)  C4H7X(141)  C4H7X(142)
                          C4H7X(143)  C4H5X(365)  C4H5X(366)  C6H9X(414)
                          C6H9X(424)  SX(438)     C6H7X(479)  C6H7X(480)
                          C6H7X(481)  C6H9X(558)  SX(560)     C8H9X(755)
                          C8H9X(756)  C8H9X(757)  C8H9X(758)""",
                site_density=2.72e-09,
                phases="gas",
          reactions='surface1-*',
                initial_state=state(temperature=300.0, pressure=OneAtm))

#-------------------------------------------------------------------------------
# Element data
#-------------------------------------------------------------------------------

element(symbol=u'X', atomic_mass=195.083)
element(symbol=u'Ci', atomic_mass=13.003)
element(symbol=u'D', atomic_mass=2.014)
element(symbol=u'Oi', atomic_mass=18.0)
element(symbol=u'T', atomic_mass=3.016)
#-------------------------------------------------------------------------------
# Species data
#-------------------------------------------------------------------------------

species(name=u'n-heptane',
        atoms='H:16 C:7',
        thermo=(NASA([100.00, 1262.75],
                     [-2.93512125E-03,  7.69375610E-02, -3.48031525E-05,
                       1.86160506E-09,  2.01550529E-12, -2.57829334E+04,
                       3.00312819E+01]),
                NASA([1262.75, 5000.00],
                     [ 1.38379971E+01,  4.85941816E-02, -1.95472819E-05,
                       3.52833289E-09, -2.39061569E-13, -3.05142526E+04,
                      -4.48654615E+01])),
        transport=gas_transport(geom='nonlinear',
                                diam=6.366,
                                well_depth=402.997))

species(name=u'Ar',
        atoms='Ar:1',
        thermo=(NASA([200.00, 1000.00],
                     [ 2.50000000E+00,  0.00000000E+00,  0.00000000E+00,
                       0.00000000E+00,  0.00000000E+00, -7.45375000E+02,
                       4.37967000E+00]),
                NASA([1000.00, 6000.00],
                     [ 2.50000000E+00,  0.00000000E+00,  0.00000000E+00,
                       0.00000000E+00,  0.00000000E+00, -7.45375000E+02,
                       4.37967000E+00])),
        transport=gas_transport(geom='atom',
                                diam=3.33,
                                well_depth=136.5))

species(name=u'He',
        atoms='He:1',
        thermo=(NASA([200.00, 1000.00],
                     [ 2.50000000E+00,  0.00000000E+00,  0.00000000E+00,
                       0.00000000E+00,  0.00000000E+00, -7.45375000E+02,
                       9.28724000E-01]),
                NASA([1000.00, 6000.00],
                     [ 2.50000000E+00,  0.00000000E+00,  0.00000000E+00,
                       0.00000000E+00,  0.00000000E+00, -7.45375000E+02,
                       9.28724000E-01])),
        transport=gas_transport(geom='atom',
                                diam=2.576,
                                well_depth=10.2))

species(name=u'Ne',
        atoms='Ne:1',
        thermo=(NASA([200.00, 1000.00],
                     [ 2.50000000E+00,  0.00000000E+00,  0.00000000E+00,
                       0.00000000E+00,  0.00000000E+00, -7.45375000E+02,
                       3.35532000E+00]),
                NASA([1000.00, 6000.00],
                     [ 2.50000000E+00,  0.00000000E+00,  0.00000000E+00,
                       0.00000000E+00,  0.00000000E+00, -7.45375000E+02,
                       3.35532000E+00])),
        transport=gas_transport(geom='atom',
                                diam=3.758,
                                well_depth=148.6))

species(name=u'N2',
        atoms='N:2',
        thermo=(NASA([200.00, 1000.00],
                     [ 3.53101000E+00, -1.23661000E-04, -5.02999000E-07,
                       2.43531000E-09, -1.40881000E-12, -1.04698000E+03,
                       2.96747000E+00]),
                NASA([1000.00, 6000.00],
                     [ 2.95258000E+00,  1.39690000E-03, -4.92632000E-07,
                       7.86010000E-11, -4.60755000E-15, -9.23949000E+02,
                       5.87189000E+00])),
        transport=gas_transport(geom='linear',
                                diam=3.621,
                                well_depth=97.53,
                                polar=1.76,
                                rot_relax=4.0))

species(name=u'C2H4(2)',
        atoms='H:4 C:2',
        thermo=(NASA([100.00, 979.37],
                     [ 3.97469045E+00, -4.75813325E-03,  4.16772624E-05,
                      -4.51377676E-08,  1.54218287E-11,  4.91540855E+03,
                       3.62439976E+00]),
                NASA([979.37, 5000.00],
                     [ 3.55670229E+00,  1.10625819E-02, -4.17009559E-06,
                       7.85564219E-10, -5.70042086E-14,  4.32042473E+03,
                       2.17665377E+00])),
        transport=gas_transport(geom='nonlinear',
                                diam=3.971,
                                well_depth=280.8,
                                rot_relax=1.5))

species(name=u'C4H8-1(3)',
        atoms='H:8 C:4',
        thermo=(NASA([100.00, 1007.28],
                     [ 2.58772978E+00,  2.32777883E-02,  1.93412653E-05,
                      -3.55496729E-08,  1.36906178E-11, -1.91872929E+03,
                       1.45750592E+01]),
                NASA([1007.28, 5000.00],
                     [ 7.20516863E+00,  2.36361619E-02, -9.03150325E-06,
                       1.65392736E-09, -1.16019318E-13, -3.79733809E+03,
                      -1.24426086E+01])),
        transport=gas_transport(geom='nonlinear',
                                diam=5.176,
                                well_depth=357.002,
                                rot_relax=1.0))

species(name=u'C4H8-2(4)',
        atoms='H:8 C:4',
        thermo=(NASA([100.00, 1157.78],
                     [ 2.51999305E+00,  2.76811707E-02,  9.44135366E-07,
                      -1.25013222E-08,  4.67160311E-12, -3.34374810E+03,
                       1.30195268E+01]),
                NASA([1157.78, 5000.00],
                     [ 6.04218222E+00,  2.60073554E-02, -1.04844041E-05,
                       1.90882450E-09, -1.30601743E-13, -4.86273126E+03,
                      -7.52672501E+00])),
        transport=gas_transport(geom='nonlinear',
                                diam=5.289,
                                well_depth=359.053))

species(name=u'H(6)',
        atoms='H:1',
        thermo=(NASA([100.00, 4383.16],
                     [ 2.50000000E+00, -2.38914167E-13,  3.12709494E-16,
                      -1.33367320E-19,  1.74989654E-23,  2.54742178E+04,
                      -4.44972897E-01]),
                NASA([4383.16, 5000.00],
                     [ 2.50003447E+00, -3.04996987E-08,  1.01101187E-11,
                      -1.48796738E-15,  8.20356170E-20,  2.54741866E+04,
                      -4.45191184E-01])),
        transport=gas_transport(geom='atom',
                                diam=2.05,
                                well_depth=145.0))

species(name=u'C6H12-1(7)',
        atoms='H:12 C:6',
        thermo=(NASA([100.00, 2065.45],
                     [ 1.68598221E+00,  5.58664678E-02, -2.53058634E-05,
                       3.98022739E-09, -6.95050220E-14, -7.81739441E+03,
                       2.09920051E+01]),
                NASA([2065.45, 5000.00],
                     [ 2.13492441E+01,  2.79128048E-02, -1.23592816E-05,
                       2.17520184E-09, -1.38342160E-13, -1.81001612E+04,
                      -9.33636231E+01])),
        transport=gas_transport(geom='nonlinear',
                                diam=5.851,
                                well_depth=385.248))

species(name=u'C6H12-2(8)',
        atoms='H:12 C:6',
        thermo=(NASA([100.00, 1829.16],
                     [ 7.23497914E-01,  6.40962929E-02, -3.88937743E-05,
                       1.18285731E-08, -1.46479465E-12, -9.55473312E+03,
                       2.34752929E+01]),
                NASA([1829.16, 5000.00],
                     [ 1.55815815E+01,  3.16049577E-02, -1.22495189E-05,
                       2.11772642E-09, -1.37577832E-13, -1.49903398E+04,
                      -5.71786483E+01])),
        transport=gas_transport(geom='nonlinear',
                                diam=5.925,
                                well_depth=395.365))

species(name=u'C6H12-3(9)',
        atoms='H:12 C:6',
        thermo=(NASA([100.00, 1839.11],
                     [ 7.39765456E-01,  6.35836464E-02, -3.85035904E-05,
                       1.16726872E-08, -1.43916121E-12, -9.53996492E+03,
                       2.35193834E+01]),
                NASA([1839.11, 5000.00],
                     [ 1.56639500E+01,  3.11245826E-02, -1.20300125E-05,
                       2.07632194E-09, -1.34696993E-13, -1.50294956E+04,
                      -5.75744504E+01])),
        transport=gas_transport(geom='nonlinear',
                                diam=5.925,
                                well_depth=395.365))

species(name=u'C6H12(10)',
        atoms='H:12 C:6',
        thermo=(NASA([100.00, 1018.92],
                     [ 1.21824397E+00,  4.88307070E-02,  8.49214055E-06,
                      -3.91884007E-08,  1.67100558E-11, -8.55522000E+03,
                       2.43075994E+01]),
                NASA([1018.92, 5000.00],
                     [ 1.16699416E+01,  3.59248568E-02, -1.39119411E-05,
                       2.55989045E-09, -1.79819725E-13, -1.21450638E+04,
                      -3.34759078E+01])),
        transport=gas_transport(geom='nonlinear',
                                diam=5.884,
                                well_depth=388.064))

species(name=u'C6H12(11)',
        atoms='H:12 C:6',
        thermo=(NASA([100.00, 1917.59],
                     [ 2.29988559E+00,  4.93348058E-02, -1.39910600E-05,
                      -2.79392986E-09,  1.20742677E-12, -1.03230295E+04,
                       1.84312025E+01]),
                NASA([1917.59, 5000.00],
                     [ 1.85713833E+01,  3.37487534E-02, -1.61574143E-05,
                       2.95099503E-09, -1.92337797E-13, -1.99382403E+04,
                      -7.94628222E+01])),
        transport=gas_transport(geom='nonlinear',
                                diam=5.95,
                                well_depth=398.057))

species(name=u'C4H6(54)',
        atoms='H:6 C:4',
        thermo=(NASA([100.00, 946.05],
                     [ 2.80594317E+00,  1.02590609E-02,  6.17237648E-05,
                      -9.01611778E-08,  3.59103084E-11,  1.16584993E+04,
                       1.20623208E+01]),
                NASA([946.05, 5000.00],
                     [ 1.24695345E+01,  1.00551088E-02, -2.41190446E-06,
                       4.57038145E-10, -3.93127871E-14,  8.01071120E+03,
                      -4.36383840E+01])),
        transport=gas_transport(geom='nonlinear',
                                diam=5.18,
                                well_depth=357.002,
                                rot_relax=1.0))

species(name=u'C6H8(56)',
        atoms='H:8 C:6',
        thermo=(NASA([100.00, 941.22],
                     [ 1.38427839E+00,  4.14411676E-02,  1.94286778E-05,
                      -6.16687823E-08,  2.86503237E-11,  1.76317462E+04,
                       1.93257559E+01]),
                NASA([941.22, 5000.00],
                     [ 1.69619725E+01,  1.57221629E-02, -4.10117912E-06,
                       6.95735258E-10, -5.26520576E-14,  1.29061653E+04,
                      -6.44097805E+01])),
        transport=gas_transport(geom='nonlinear',
                                diam=5.514,
                                well_depth=396.052))

species(name=u'H2(190)',
        atoms='H:2',
        thermo=(NASA([100.00, 1959.08],
                     [ 3.43536411E+00,  2.12710383E-04, -2.78625110E-07,
                       3.40267219E-10, -7.76032129E-14, -1.03135984E+03,
                      -3.90841731E+00]),
                NASA([1959.08, 5000.00],
                     [ 2.78816619E+00,  5.87640475E-04,  1.59010635E-07,
                      -5.52739465E-11,  4.34311304E-15, -5.96144481E+02,
                       1.12730527E-01])),
        transport=gas_transport(geom='linear',
                                diam=2.833,
                                well_depth=59.7))

species(name=u'C2H6(343)',
        atoms='H:6 C:2',
        thermo=(NASA([100.00, 1012.42],
                     [ 3.72239308E+00,  1.65083640E-03,  3.44175601E-05,
                      -3.76858321E-08,  1.24450696E-11, -1.15575902E+04,
                       4.68247939E+00]),
                NASA([1012.42, 5000.00],
                     [ 2.82848184E+00,  1.73040581E-02, -6.73334315E-06,
                       1.23742041E-09, -8.65676548E-14, -1.19978077E+04,
                       5.93812118E+00])),
        transport=gas_transport(geom='nonlinear',
                                diam=4.302,
                                well_depth=252.3,
                                rot_relax=1.5))

species(name=u'CH4(358)',
        atoms='H:4 C:1',
        thermo=(NASA([100.00, 1084.15],
                     [ 4.20540072E+00, -5.35540640E-03,  2.51117636E-05,
                      -2.13755910E-08,  5.97496145E-12, -1.01619427E+04,
                      -9.21226951E-01]),
                NASA([1084.15, 5000.00],
                     [ 9.08349401E-01,  1.14539479E-02, -4.57166053E-06,
                       8.29173612E-10, -5.66300105E-14, -9.72001110E+03,
                       1.39926204E+01])),
        transport=gas_transport(geom='nonlinear',
                                diam=3.746,
                                well_depth=141.4,
                                polar=2.6,
                                rot_relax=13.0))

species(name=u'C8H10(440)',
        atoms='H:10 C:8',
        thermo=(NASA([100.00, 941.39],
                     [ 8.64066480E-02,  6.59512573E-02,  1.48806368E-06,
                      -6.06834808E-08,  3.13832585E-11,  2.39088947E+04,
                       2.66194394E+01]),
                NASA([941.39, 5000.00],
                     [ 2.28419165E+01,  1.96702446E-02, -5.08789164E-06,
                       8.53647924E-10, -6.42353888E-14,  1.73909208E+04,
                      -9.36517408E+01])),
        transport=gas_transport(geom='nonlinear',
                                diam=6.008,
                                well_depth=441.329))

species(name=u'C8H12(658)',
        atoms='H:12 C:8',
        thermo=(NASA([100.00, 1005.34],
                     [ 1.86690834E-01,  6.87130466E-02, -1.27841021E-05,
                      -3.12859178E-08,  1.65061399E-11,  1.40386717E+04,
                       3.13642208E+01]),
                NASA([1005.34, 5000.00],
                     [ 1.70020987E+01,  3.54849525E-02, -1.34527994E-05,
                       2.47698781E-09, -1.75377178E-13,  8.95578691E+03,
                      -5.83139818E+01])),
        transport=gas_transport(geom='nonlinear',
                                diam=6.146,
                                well_depth=430.747))

species(name=u'X(1)',
        atoms='X:1',
        thermo=(NASA([100.00, 1554.81],
                     [ 7.10134880E-03, -4.25615041E-05,  8.98521156E-08,
                      -7.80182565E-11,  2.32462166E-14, -8.76099414E-01,
                      -3.11209498E-02]),
                NASA([1554.81, 5000.00],
                     [ 1.60301287E-01, -2.52237396E-04,  1.14182282E-07,
                      -1.21473809E-11,  3.85806589E-16, -7.08108147E+01,
                      -9.09535600E-01])))

species(name=u'C2H5X(5)',
        atoms='H:5 C:2 X:1',
        thermo=(NASA([100.00, 803.89],
                     [-1.64624290E+00,  3.89625197E-02, -4.31124593E-05,
                       2.97071589E-08, -8.80200440E-12, -8.05860409E+03,
                       9.27319544E+00]),
                NASA([803.89, 5000.00],
                     [ 1.97599860E+00,  2.09382411E-02, -9.47914613E-06,
                       1.81392354E-09, -1.27205831E-13, -8.64095787E+03,
                      -7.41117371E+00])))

species(name=u'HX(80)',
        atoms='H:1 X:1',
        thermo=(NASA([100.00, 952.91],
                     [-3.80957846E-01,  5.47219393E-03,  2.60946928E-06,
                      -9.65008412E-09,  4.63967474E-12, -1.90282382E+03,
                       1.01722845E+00]),
                NASA([952.91, 5000.00],
                     [ 2.80337105E+00, -5.41002993E-04,  4.99482316E-07,
                      -7.54902555E-11,  3.06721398E-15, -2.84356241E+03,
                      -1.59435356E+01])))

species(name=u'C2H3X(137)',
        atoms='H:3 C:2 X:1',
        thermo=(NASA([100.00, 928.60],
                     [ 3.83104022E+00, -8.76542826E-03,  6.98017027E-05,
                      -8.68052566E-08,  3.33256145E-11,  3.64558252E+03,
                      -1.81156365E+01]),
                NASA([928.60, 5000.00],
                     [ 8.78015372E+00,  1.92565992E-03,  8.25424482E-07,
                      -1.63654020E-10,  5.70926320E-15,  1.34634449E+03,
                      -4.90566656E+01])))

species(name=u'CH3X(139)',
        atoms='H:3 C:1 X:1',
        thermo=(NASA([100.00, 848.30],
                     [-1.21090611E+00,  2.92390831E-02, -4.49011672E-05,
                       3.86010689E-08, -1.30361474E-11, -4.07492854E+03,
                       6.80940157E+00]),
                NASA([848.30, 5000.00],
                     [ 1.62291116E+00,  1.12987225E-02, -5.08316650E-06,
                       9.46832954E-10, -6.42885005E-14, -4.39099443E+03,
                      -5.42502394E+00])))

species(name=u'C4H7X(140)',
        atoms='H:7 C:4 X:1',
        thermo=(NASA([100.00, 971.02],
                     [ 2.64368251E+00,  1.79003685E-02,  4.24457324E-05,
                      -6.44047422E-08,  2.49602315E-11, -3.85296089E+03,
                      -6.70003109E+00]),
                NASA([971.02, 5000.00],
                     [ 9.25860008E+00,  2.04066151E-02, -7.39155270E-06,
                       1.37023983E-09, -9.94156257E-14, -6.54039516E+03,
                      -4.56419548E+01])))

species(name=u'C4H7X(141)',
        atoms='H:7 C:4 X:1',
        thermo=(NASA([100.00, 986.68],
                     [ 2.45797290E+00,  2.47218439E-02,  2.01282012E-05,
                      -4.02730332E-08,  1.62483577E-11,  4.54922793E+03,
                      -5.12988514E+00]),
                NASA([986.68, 5000.00],
                     [ 8.87901611E+00,  2.09043388E-02, -7.83847728E-06,
                       1.44075651E-09, -1.02346191E-13,  2.20085657E+03,
                      -4.15009568E+01])))

species(name=u'C4H7X(142)',
        atoms='H:7 C:4 X:1',
        thermo=(NASA([100.00, 965.04],
                     [ 2.56885679E+00,  1.97490862E-02,  3.72996972E-05,
                      -6.04065123E-08,  2.40010228E-11, -4.12438382E+03,
                      -8.56593019E+00]),
                NASA([965.04, 5000.00],
                     [ 9.89750247E+00,  1.86147853E-02, -6.38912892E-06,
                       1.17316108E-09, -8.55462900E-14, -6.90055352E+03,
                      -5.07166347E+01])))

species(name=u'C4H7X(143)',
        atoms='H:7 C:4 X:1',
        thermo=(NASA([100.00, 949.34],
                     [ 2.54262411E+00,  1.77379351E-02,  4.93913107E-05,
                      -7.72926578E-08,  3.10681685E-11, -2.89875043E+03,
                      -8.46811948E+00]),
                NASA([949.34, 5000.00],
                     [ 1.15217625E+01,  1.60010436E-02, -4.89849803E-06,
                       8.84035360E-10, -6.63762686E-14, -6.23017251E+03,
                      -5.98873444E+01])))

species(name=u'C4H5X(365)',
        atoms='H:5 C:4 X:1',
        thermo=(NASA([100.00, 936.52],
                     [ 2.68471814E+00,  1.36244384E-02,  5.32592262E-05,
                      -8.32913017E-08,  3.41499632E-11,  5.73881820E+03,
                      -1.06510519E+01]),
                NASA([936.52, 5000.00],
                     [ 1.29012238E+01,  8.96922349E-03, -1.71920361E-06,
                       2.89745198E-10, -2.58686934E-14,  2.11578044E+03,
                      -6.83963240E+01])))

species(name=u'C4H5X(366)',
        atoms='H:5 C:4 X:1',
        thermo=(NASA([100.00, 928.62],
                     [ 2.64239936E+00,  8.31017311E-03,  8.12180670E-05,
                      -1.21403473E-07,  4.98652517E-11,  1.09217238E+04,
                      -1.03935602E+01]),
                NASA([928.62, 5000.00],
                     [ 1.69488231E+01,  2.00857887E-03,  2.03445917E-06,
                      -4.02602194E-10,  1.85354193E-14,  5.87932394E+03,
                      -9.11978215E+01])))

species(name=u'C6H9X(414)',
        atoms='H:9 C:6 X:1',
        thermo=(NASA([100.00, 999.56],
                     [ 1.67666865E+00,  3.46237095E-02,  3.95042933E-05,
                      -7.18098006E-08,  2.83883045E-11,  6.14369820E+03,
                       1.40574199E+00]),
                NASA([999.56, 5000.00],
                     [ 1.32937818E+01,  2.82669225E-02, -1.11807632E-05,
                       2.16224377E-09, -1.59009590E-13,  1.81644910E+03,
                      -6.46636369E+01])))

species(name=u'C6H9X(424)',
        atoms='H:9 C:6 X:1',
        thermo=(NASA([100.00, 1020.19],
                     [ 1.54908995E+00,  4.00613507E-02,  2.02860097E-05,
                      -5.00985471E-08,  2.03555152E-11,  1.28340367E+04,
                       4.81062025E+00]),
                NASA([1020.19, 5000.00],
                     [ 1.26206039E+01,  2.92926542E-02, -1.18732774E-05,
                       2.27874699E-09, -1.65054566E-13,  8.87642247E+03,
                      -5.71493055E+01])))

species(name=u'SX(438)',
        atoms='H:11 C:8 X:1',
        thermo=(NASA([100.00, 972.95],
                     [ 2.21489032E-01,  6.31111443E-02,  1.32724260E-05,
                      -6.52466858E-08,  3.01549237E-11,  1.23723376E+04,
                       1.01868224E+01]),
                NASA([972.95, 5000.00],
                     [ 1.97220994E+01,  3.08925124E-02, -1.09842031E-05,
                       2.02953264E-09, -1.47662864E-13,  6.30804204E+03,
                      -9.50214419E+01])))

species(name=u'C6H7X(479)',
        atoms='H:7 C:6 X:1',
        thermo=(NASA([100.00, 921.06],
                     [ 1.31098703E+00,  3.98938896E-02,  3.32176678E-05,
                      -8.35174769E-08,  3.86291185E-11,  1.07557193E+04,
                      -3.79681512E+00]),
                NASA([921.06, 5000.00],
                     [ 1.94242456E+01,  1.10873203E-02, -1.06260774E-06,
                       6.27632967E-11, -7.94405419E-15,  5.30426219E+03,
                      -1.01173483E+02])))

species(name=u'C6H7X(480)',
        atoms='H:7 C:6 X:1',
        thermo=(NASA([100.00, 937.50],
                     [ 1.68534398E+00,  3.10727560E-02,  5.20804043E-05,
                      -9.63159071E-08,  4.10725706E-11,  7.35589978E+03,
                      -3.14969376E+00]),
                NASA([937.50, 5000.00],
                     [ 1.71062698E+01,  1.56096252E-02, -3.71085468E-06,
                       6.25094970E-10, -4.95752994E-14,  2.25257802E+03,
                      -8.83482755E+01])))

species(name=u'C6H7X(481)',
        atoms='H:7 C:6 X:1',
        thermo=(NASA([100.00, 928.32],
                     [ 1.31533986E+00,  3.68784383E-02,  4.55982789E-05,
                      -9.88748537E-08,  4.43876422E-11,  1.65433697E+04,
                      -3.00642679E+00]),
                NASA([928.32, 5000.00],
                     [ 2.11711895E+01,  8.22305277E-03, -4.16748407E-08,
                      -7.09143678E-11, -2.30023750E-15,  1.04050817E+04,
                      -1.10528035E+02])))

species(name=u'C6H9X(558)',
        atoms='H:9 C:6 X:1',
        thermo=(NASA([100.00, 977.39],
                     [ 1.58499628E+00,  3.64527959E-02,  3.83868882E-05,
                      -7.37849038E-08,  3.01376394E-11, -1.62268747E+03,
                       1.74552652E+00]),
                NASA([977.39, 5000.00],
                     [ 1.38451375E+01,  2.70865304E-02, -9.86826977E-06,
                       1.84856916E-09, -1.35053147E-13, -5.96847583E+03,
                      -6.70936715E+01])))

species(name=u'SX(560)',
        atoms='H:11 C:8 X:1',
        thermo=(NASA([100.00, 966.87],
                     [ 5.01876449E-01,  5.67061053E-02,  2.79412944E-05,
                      -7.77610310E-08,  3.41155698E-11,  8.34019716E+03,
                       1.04576377E+01]),
                NASA([966.87, 5000.00],
                     [ 1.81644549E+01,  3.28758728E-02, -1.14801819E-05,
                       2.09286218E-09, -1.51148952E-13,  2.62308136E+03,
                      -8.60614624E+01])))

species(name=u'C8H9X(755)',
        atoms='H:9 C:8 X:1',
        thermo=(NASA([100.00, 938.21],
                     [ 3.87929657E-01,  5.55772679E-02,  3.41600896E-05,
                      -9.53579225E-08,  4.38175370E-11,  1.36330288E+04,
                       4.14236180E+00]),
                NASA([938.21, 5000.00],
                     [ 2.29845027E+01,  1.95606548E-02, -4.69928315E-06,
                       7.83415745E-10, -6.11926536E-14,  6.73804044E+03,
                      -1.17580626E+02])))

species(name=u'C8H9X(756)',
        atoms='H:9 C:8 X:1',
        thermo=(NASA([100.00, 924.30],
                     [ 1.56490513E-02,  6.43739896E-02,  1.53811335E-05,
                      -8.26630677E-08,  4.14146929E-11,  1.70327596E+04,
                       3.48779964E+00]),
                NASA([924.30, 5000.00],
                     [ 2.52908506E+01,  1.50581840E-02, -2.06250089E-06,
                       2.23796941E-10, -1.97867187E-14,  9.79458777E+03,
                      -1.30340427E+02])))

species(name=u'C8H9X(757)',
        atoms='H:9 C:8 X:1',
        thermo=(NASA([100.00, 938.21],
                     [ 3.87929657E-01,  5.55772679E-02,  3.41600896E-05,
                      -9.53579225E-08,  4.38175370E-11,  1.36330288E+04,
                       4.14236180E+00]),
                NASA([938.21, 5000.00],
                     [ 2.29845027E+01,  1.95606548E-02, -4.69928315E-06,
                       7.83415745E-10, -6.11926536E-14,  6.73804044E+03,
                      -1.17580626E+02])))

species(name=u'C8H9X(758)',
        atoms='H:9 C:8 X:1',
        thermo=(NASA([100.00, 930.19],
                     [ 1.94122812E-02,  6.13650845E-02,  2.77415082E-05,
                      -9.79997000E-08,  4.71676258E-11,  2.28204353E+04,
                       4.28032279E+00]),
                NASA([930.19, 5000.00],
                     [ 2.70426665E+01,  1.21856615E-02, -1.03681927E-06,
                       8.89995491E-11, -1.40501528E-14,  1.48933531E+04,
                      -1.39722414E+02])))

#-------------------------------------------------------------------------------
# Reaction data
#-------------------------------------------------------------------------------
#  Reaction index: Chemkin #1; RMG #524
#  Template reaction: R_Recombination
#  Flux pairs: H(6), H2(190); H(6), H2(190);
#  Matched reaction 56 H + H <=> H2 in R_Recombination/training
#  This reaction matched rate rule [H_rad;H_rad]
#  family: R_Recombination

# Reaction 1
reaction('H(6) + H(6) <=> H2(190)', [5.450000e+10, 0.0, 1.5],
         id='gas-1')
#  Reaction index: Chemkin #1; RMG #72
#  Template reaction: Surface_EleyRideal_Addition_Multiple_Bond
#  Flux pairs: HX(80), C2H5X(5); C2H4(2), C2H5X(5);
#  Estimated using template [*H;R=R] for rate rule [*H;C=C]
#  Euclidian distance = 1.0
#  Multiplied by reaction path degeneracy 2.0
#  family: Surface_EleyRideal_Addition_Multiple_Bond

# surface1 Reaction 1
surface_reaction('C2H4(2) + HX(80) <=> C2H5X(5)', stick(4.000000e-01, 0.0, 2.39),
                 id='surface1-1')
#  Reaction index: Chemkin #2; RMG #180
#  Template reaction: Surface_Adsorption_Single
#  Flux pairs: X(1), HX(80); H(6), HX(80);
#  Exact match found for rate rule [Adsorbate;VacantSite]
#  Euclidian distance = 0
#  family: Surface_Adsorption_Single

# surface1 Reaction 2
surface_reaction('X(1) + H(6) <=> HX(80)', stick(1.000000e-01, 0.0, 0.0),
                 id='surface1-2')
#  Reaction index: Chemkin #3; RMG #168
#  Template reaction: Surface_Adsorption_Dissociative
#  Flux pairs: C2H4(2), C2H3X(137); C2H4(2), HX(80);
#  Estimated using template [R-H;VacantSite1;VacantSite2] for rate rule [C-H;VacantSite1;VacantSite2]
#  Euclidian distance = 1.0
#  Multiplied by reaction path degeneracy 4.0
#  family: Surface_Adsorption_Dissociative

# surface1 Reaction 3
surface_reaction('C2H4(2) + X(1) + X(1) <=> C2H3X(137) + HX(80)', stick(1.660000e-02, 0.0, 5.0),
                 options='duplicate',
                 id='surface1-3')
#  Reaction index: Chemkin #4; RMG #170
#  Template reaction: Surface_Adsorption_Dissociative
#  Flux pairs: C4H8-1(3), C2H5X(5); C4H8-1(3), C2H3X(137);
#  Exact match found for rate rule [C-C;VacantSite1;VacantSite2]
#  Euclidian distance = 0
#  family: Surface_Adsorption_Dissociative

# surface1 Reaction 4