units(length='cm', time='s', quantity='mol', act_energy='kcal/mol')

ideal_gas(name='gas',
          elements="H D T C Ci O Oi N Ne Ar He Si S Cl X",
          species="""n-heptane  Ar         He         Ne         N2
                     C2H4(2)    C4H8-1(3)  C4H8-2(4)  C4H6(48)   C6H8(50)
                     H2(110)    C2H6(116)  CH4(118)   S(230)     C4H8(325)""",
          reactions='gas-*',
          initial_state=state(temperature=300.0, pressure=OneAtm))

ideal_interface(name='surface1',
                elements="H D T C Ci O Oi N Ne Ar He Si S Cl X",
                species="""X(1)        C2H3X(74)   HX(75)      CH3X(77)
                          C2H5X(78)   C4H7X(79)   C4H7X(80)   C4H7X(81)
                          C4H7X(82)   C4H5X(125)  C4H5X(126)  C6H7X(179)
                          C6H7X(180)  C6H7X(181)  C4H7X(285)""",
                site_density=2.72e-09,
                phases="gas",
          reactions='surface1-*',
                initial_state=state(temperature=300.0, pressure=OneAtm))

#-------------------------------------------------------------------------------
# Element data
#-------------------------------------------------------------------------------

element(symbol=u'X', atomic_mass=195.083)
element(symbol=u'Ci', atomic_mass=13.003)
element(symbol=u'D', atomic_mass=2.014)
element(symbol=u'Oi', atomic_mass=18.0)
element(symbol=u'T', atomic_mass=3.016)
#-------------------------------------------------------------------------------
# Species data
#-------------------------------------------------------------------------------

species(name=u'n-heptane',
        atoms='H:16 C:7',
        thermo=(NASA([100.00, 1262.75],
                     [-2.93512125E-03,  7.69375610E-02, -3.48031525E-05,
                       1.86160506E-09,  2.01550529E-12, -2.57829334E+04,
                       3.00312819E+01]),
                NASA([1262.75, 5000.00],
                     [ 1.38379971E+01,  4.85941816E-02, -1.95472819E-05,
                       3.52833289E-09, -2.39061569E-13, -3.05142526E+04,
                      -4.48654615E+01])))

species(name=u'Ar',
        atoms='Ar:1',
        thermo=(NASA([200.00, 1000.00],
                     [ 2.50000000E+00,  0.00000000E+00,  0.00000000E+00,
                       0.00000000E+00,  0.00000000E+00, -7.45375000E+02,
                       4.37967000E+00]),
                NASA([1000.00, 6000.00],
                     [ 2.50000000E+00,  0.00000000E+00,  0.00000000E+00,
                       0.00000000E+00,  0.00000000E+00, -7.45375000E+02,
                       4.37967000E+00])))

species(name=u'He',
        atoms='He:1',
        thermo=(NASA([200.00, 1000.00],
                     [ 2.50000000E+00,  0.00000000E+00,  0.00000000E+00,
                       0.00000000E+00,  0.00000000E+00, -7.45375000E+02,
                       9.28724000E-01]),
                NASA([1000.00, 6000.00],
                     [ 2.50000000E+00,  0.00000000E+00,  0.00000000E+00,
                       0.00000000E+00,  0.00000000E+00, -7.45375000E+02,
                       9.28724000E-01])))

species(name=u'Ne',
        atoms='Ne:1',
        thermo=(NASA([200.00, 1000.00],
                     [ 2.50000000E+00,  0.00000000E+00,  0.00000000E+00,
                       0.00000000E+00,  0.00000000E+00, -7.45375000E+02,
                       3.35532000E+00]),
                NASA([1000.00, 6000.00],
                     [ 2.50000000E+00,  0.00000000E+00,  0.00000000E+00,
                       0.00000000E+00,  0.00000000E+00, -7.45375000E+02,
                       3.35532000E+00])))

species(name=u'N2',
        atoms='N:2',
        thermo=(NASA([200.00, 1000.00],
                     [ 3.53101000E+00, -1.23661000E-04, -5.02999000E-07,
                       2.43531000E-09, -1.40881000E-12, -1.04698000E+03,
                       2.96747000E+00]),
                NASA([1000.00, 6000.00],
                     [ 2.95258000E+00,  1.39690000E-03, -4.92632000E-07,
                       7.86010000E-11, -4.60755000E-15, -9.23949000E+02,
                       5.87189000E+00])))

species(name=u'C2H4(2)',
        atoms='H:4 C:2',
        thermo=(NASA([100.00, 979.37],
                     [ 3.97469045E+00, -4.75813325E-03,  4.16772624E-05,
                      -4.51377676E-08,  1.54218287E-11,  4.91540855E+03,
                       3.62439976E+00]),
                NASA([979.37, 5000.00],
                     [ 3.55670229E+00,  1.10625819E-02, -4.17009559E-06,
                       7.85564219E-10, -5.70042086E-14,  4.32042473E+03,
                       2.17665377E+00])))

species(name=u'C4H8-1(3)',
        atoms='H:8 C:4',
        thermo=(NASA([100.00, 1007.28],
                     [ 2.58772978E+00,  2.32777883E-02,  1.93412653E-05,
                      -3.55496729E-08,  1.36906178E-11, -1.91872929E+03,
                       1.45750592E+01]),
                NASA([1007.28, 5000.00],
                     [ 7.20516863E+00,  2.36361619E-02, -9.03150325E-06,
                       1.65392736E-09, -1.16019318E-13, -3.79733809E+03,
                      -1.24426086E+01])))

species(name=u'C4H8-2(4)',
        atoms='H:8 C:4',
        thermo=(NASA([100.00, 1157.78],
                     [ 2.51999305E+00,  2.76811707E-02,  9.44135366E-07,
                      -1.25013222E-08,  4.67160311E-12, -3.34374810E+03,
                       1.30195268E+01]),
                NASA([1157.78, 5000.00],
                     [ 6.04218222E+00,  2.60073554E-02, -1.04844041E-05,
                       1.90882450E-09, -1.30601743E-13, -4.86273126E+03,
                      -7.52672501E+00])))

species(name=u'C4H6(48)',
        atoms='H:6 C:4',
        thermo=(NASA([100.00, 946.05],
                     [ 2.80594317E+00,  1.02590609E-02,  6.17237648E-05,
                      -9.01611778E-08,  3.59103084E-11,  1.16584993E+04,
                       1.20623208E+01]),
                NASA([946.05, 5000.00],
                     [ 1.24695345E+01,  1.00551088E-02, -2.41190446E-06,
                       4.57038145E-10, -3.93127871E-14,  8.01071120E+03,
                      -4.36383840E+01])))

species(name=u'C6H8(50)',
        atoms='H:8 C:6',
        thermo=(NASA([100.00, 941.22],
                     [ 1.38427839E+00,  4.14411676E-02,  1.94286778E-05,
                      -6.16687823E-08,  2.86503237E-11,  1.76317462E+04,
                       1.93257559E+01]),
                NASA([941.22, 5000.00],
                     [ 1.69619725E+01,  1.57221629E-02, -4.10117912E-06,
                       6.95735258E-10, -5.26520576E-14,  1.29061653E+04,
                      -6.44097805E+01])))

species(name=u'H2(110)',
        atoms='H:2',
        thermo=(NASA([100.00, 1959.08],
                     [ 3.43536411E+00,  2.12710383E-04, -2.78625110E-07,
                       3.40267219E-10, -7.76032129E-14, -1.03135984E+03,
                      -3.90841731E+00]),
                NASA([1959.08, 5000.00],
                     [ 2.78816619E+00,  5.87640475E-04,  1.59010635E-07,
                      -5.52739465E-11,  4.34311304E-15, -5.96144481E+02,
                       1.12730527E-01])))

species(name=u'C2H6(116)',
        atoms='H:6 C:2',
        thermo=(NASA([100.00, 1012.42],
                     [ 3.72239308E+00,  1.65083640E-03,  3.44175601E-05,
                      -3.76858321E-08,  1.24450696E-11, -1.15575902E+04,
                       4.68247939E+00]),
                NASA([1012.42, 5000.00],
                     [ 2.82848184E+00,  1.73040581E-02, -6.73334315E-06,
                       1.23742041E-09, -8.65676548E-14, -1.19978077E+04,
                       5.93812118E+00])))

species(name=u'CH4(118)',
        atoms='H:4 C:1',
        thermo=(NASA([100.00, 1084.15],
                     [ 4.20540072E+00, -5.35540640E-03,  2.51117636E-05,
                      -2.13755910E-08,  5.97496145E-12, -1.01619427E+04,
                      -9.21226951E-01]),
                NASA([1084.15, 5000.00],
                     [ 9.08349401E-01,  1.14539479E-02, -4.57166053E-06,
                       8.29173612E-10, -5.66300105E-14, -9.72001110E+03,
                       1.39926204E+01])))

species(name=u'S(230)',
        atoms='H:16 C:12',
        thermo=(NASA([100.00, 985.43],
                     [-1.88309559E+00,  1.07042782E-01, -2.70575175E-05,
                      -4.30521591E-08,  2.47769762E-11,  4.00783515E+04,
                       4.74622652E+01]),
                NASA([985.43, 5000.00],
                     [ 2.44924173E+01,  5.06802141E-02, -1.84364732E-05,
                       3.32429337E-09, -2.33628170E-13,  3.24184482E+04,
                      -9.18874447E+01])))

species(name=u'C4H8(325)',
        atoms='H:8 C:4',
        thermo=(NASA([100.00, 1061.32],
                     [ 2.52506524E+00,  2.64750742E-02,  7.08428866E-06,
                      -2.07740178E-08,  8.00465619E-12, -4.02607206E+03,
                       1.28856643E+01]),
                NASA([1061.32, 5000.00],
                     [ 6.48663440E+00,  2.49945454E-02, -9.83291861E-06,
                       1.79345326E-09, -1.24009900E-13, -5.62448308E+03,
                      -1.00311177E+01])))

species(name=u'X(1)',
        atoms='X:1',
        thermo=(NASA([100.00, 1554.81],
                     [ 7.10134880E-03, -4.25615041E-05,  8.98521156E-08,
                      -7.80182565E-11,  2.32462166E-14, -8.76099414E-01,
                      -3.11209498E-02]),
                NASA([1554.81, 5000.00],
                     [ 1.60301287E-01, -2.52237396E-04,  1.14182282E-07,
                      -1.21473809E-11,  3.85806589E-16, -7.08108147E+01,
                      -9.09535600E-01])))

species(name=u'C2H3X(74)',
        atoms='H:3 C:2 X:1',
        thermo=(NASA([100.00, 928.60],
                     [ 3.83104022E+00, -8.76542826E-03,  6.98017027E-05,
                      -8.68052566E-08,  3.33256145E-11,  3.64558252E+03,
                      -1.81156365E+01]),
                NASA([928.60, 5000.00],
                     [ 8.78015372E+00,  1.92565992E-03,  8.25424482E-07,
                      -1.63654020E-10,  5.70926320E-15,  1.34634449E+03,
                      -4.90566656E+01])))

species(name=u'HX(75)',
        atoms='H:1 X:1',
        thermo=(NASA([100.00, 952.91],
                     [-3.80957846E-01,  5.47219393E-03,  2.60946928E-06,
                      -9.65008412E-09,  4.63967474E-12, -1.90282382E+03,
                       1.01722845E+00]),
                NASA([952.91, 5000.00],
                     [ 2.80337105E+00, -5.41002993E-04,  4.99482316E-07,
                      -7.54902555E-11,  3.06721398E-15, -2.84356241E+03,
                      -1.59435356E+01])))

species(name=u'CH3X(77)',
        atoms='H:3 C:1 X:1',
        thermo=(NASA([100.00, 848.30],
                     [-1.21090611E+00,  2.92390831E-02, -4.49011672E-05,
                       3.86010689E-08, -1.30361474E-11, -4.07492854E+03,
                       6.80940157E+00]),
                NASA([848.30, 5000.00],
                     [ 1.62291116E+00,  1.12987225E-02, -5.08316650E-06,
                       9.46832954E-10, -6.42885005E-14, -4.39099443E+03,
                      -5.42502394E+00])))

species(name=u'C2H5X(78)',
        atoms='H:5 C:2 X:1',
        thermo=(NASA([100.00, 803.89],
                     [-1.64624290E+00,  3.89625197E-02, -4.31124593E-05,
                       2.97071589E-08, -8.80200440E-12, -8.05860409E+03,
                       9.27319544E+00]),
                NASA([803.89, 5000.00],
                     [ 1.97599860E+00,  2.09382411E-02, -9.47914613E-06,
                       1.81392354E-09, -1.27205831E-13, -8.64095787E+03,
                      -7.41117371E+00])))

species(name=u'C4H7X(79)',
        atoms='H:7 C:4 X:1',
        thermo=(NASA([100.00, 971.02],
                     [ 2.64368251E+00,  1.79003685E-02,  4.24457324E-05,
                      -6.44047422E-08,  2.49602315E-11, -3.85296089E+03,
                      -6.70003109E+00]),
                NASA([971.02, 5000.00],
                     [ 9.25860008E+00,  2.04066151E-02, -7.39155270E-06,
                       1.37023983E-09, -9.94156257E-14, -6.54039516E+03,
                      -4.56419548E+01])))

species(name=u'C4H7X(80)',
        atoms='H:7 C:4 X:1',
        thermo=(NASA([100.00, 986.68],
                     [ 2.45797290E+00,  2.47218439E-02,  2.01282012E-05,
                      -4.02730332E-08,  1.62483577E-11,  4.54922793E+03,
                      -5.12988514E+00]),
                NASA([986.68, 5000.00],
                     [ 8.87901611E+00,  2.09043388E-02, -7.83847728E-06,
                       1.44075651E-09, -1.02346191E-13,  2.20085657E+03,
                      -4.15009568E+01])))

species(name=u'C4H7X(81)',
        atoms='H:7 C:4 X:1',
        thermo=(NASA([100.00, 965.04],
                     [ 2.56885679E+00,  1.97490862E-02,  3.72996972E-05,
                      -6.04065123E-08,  2.40010228E-11, -4.12438382E+03,
                      -8.56593019E+00]),
                NASA([965.04, 5000.00],
                     [ 9.89750247E+00,  1.86147853E-02, -6.38912892E-06,
                       1.17316108E-09, -8.55462900E-14, -6.90055352E+03,
                      -5.07166347E+01])))

species(name=u'C4H7X(82)',
        atoms='H:7 C:4 X:1',
        thermo=(NASA([100.00, 949.34],
                     [ 2.54262411E+00,  1.77379351E-02,  4.93913107E-05,
                      -7.72926578E-08,  3.10681685E-11, -2.89875043E+03,
                      -8.46811948E+00]),
                NASA([949.34, 5000.00],
                     [ 1.15217625E+01,  1.60010436E-02, -4.89849803E-06,
                       8.84035360E-10, -6.63762686E-14, -6.23017251E+03,
                      -5.98873444E+01])))

species(name=u'C4H5X(125)',
        atoms='H:5 C:4 X:1',
        thermo=(NASA([100.00, 936.52],
                     [ 2.68471814E+00,  1.36244384E-02,  5.32592262E-05,
                      -8.32913017E-08,  3.41499632E-11,  5.73881820E+03,
                      -1.06510519E+01]),
                NASA([936.52, 5000.00],
                     [ 1.29012238E+01,  8.96922349E-03, -1.71920361E-06,
                       2.89745198E-10, -2.58686934E-14,  2.11578044E+03,
                      -6.83963240E+01])))

species(name=u'C4H5X(126)',
        atoms='H:5 C:4 X:1',
        thermo=(NASA([100.00, 928.62],
                     [ 2.64239936E+00,  8.31017311E-03,  8.12180670E-05,
                      -1.21403473E-07,  4.98652517E-11,  1.09217238E+04,
                      -1.03935602E+01]),
                NASA([928.62, 5000.00],
                     [ 1.69488231E+01,  2.00857887E-03,  2.03445917E-06,
                      -4.02602194E-10,  1.85354193E-14,  5.87932394E+03,
                      -9.11978215E+01])))

species(name=u'C6H7X(179)',
        atoms='H:7 C:6 X:1',
        thermo=(NASA([100.00, 921.06],
                     [ 1.31098703E+00,  3.98938896E-02,  3.32176678E-05,
                      -8.35174769E-08,  3.86291185E-11,  1.07557193E+04,
                      -3.79681512E+00]),
                NASA([921.06, 5000.00],
                     [ 1.94242456E+01,  1.10873203E-02, -1.06260774E-06,
                       6.27632967E-11, -7.94405419E-15,  5.30426219E+03,
                      -1.01173483E+02])))

species(name=u'C6H7X(180)',
        atoms='H:7 C:6 X:1',
        thermo=(NASA([100.00, 937.50],
                     [ 1.68534398E+00,  3.10727560E-02,  5.20804043E-05,
                      -9.63159071E-08,  4.10725706E-11,  7.35589978E+03,
                      -3.14969376E+00]),
                NASA([937.50, 5000.00],
                     [ 1.71062698E+01,  1.56096252E-02, -3.71085468E-06,
                       6.25094970E-10, -4.95752994E-14,  2.25257802E+03,
                      -8.83482755E+01])))

species(name=u'C6H7X(181)',
        atoms='H:7 C:6 X:1',
        thermo=(NASA([100.00, 928.32],
                     [ 1.31533986E+00,  3.68784383E-02,  4.55982789E-05,
                      -9.88748537E-08,  4.43876422E-11,  1.65433697E+04,
                      -3.00642679E+00]),
                NASA([928.32, 5000.00],
                     [ 2.11711895E+01,  8.22305277E-03, -4.16748407E-08,
                      -7.09143678E-11, -2.30023750E-15,  1.04050817E+04,
                      -1.10528035E+02])))

species(name=u'C4H7X(285)',
        atoms='H:7 C:4 X:1',
        thermo=(NASA([100.00, 947.75],
                     [ 2.86443068E+00,  8.12921682E-03,  7.59618652E-05,
                      -1.03619921E-07,  4.00701955E-11, -3.83411716E+03,
                      -2.40048015E+00]),
                NASA([947.75, 5000.00],
                     [ 1.10488776E+01,  1.63915684E-02, -4.86289756E-06,
                       8.89653791E-10, -6.85145842E-14, -7.30789606E+03,
                      -5.15885474E+01])))

#-------------------------------------------------------------------------------
# Reaction data
#-------------------------------------------------------------------------------
#  Reaction index: Chemkin #1; RMG #388
#  Template reaction: 1,4_Linear_birad_scission
#  Flux pairs: S(230), C6H8(50); S(230), C6H8(50);
#  Exact match found for rate rule [RJJ]
#  Euclidian distance = 0
#  family: 1,4_Linear_birad_scission

# Reaction 1
reaction('S(230) <=> C6H8(50) + C6H8(50)', [5.000000e+12, 0.0, 0.0],
         id='gas-1')
#  Reaction index: Chemkin #1; RMG #72
#  Template reaction: Surface_Adsorption_Dissociative
#  Flux pairs: C2H4(2), C2H3X(74); C2H4(2), HX(75);
#  Exact match found for rate rule [C-H;VacantSite1;VacantSite2]
#  Euclidian distance = 0
#  Multiplied by reaction path degeneracy 4.0
#  family: Surface_Adsorption_Dissociative

# surface1 Reaction 1
surface_reaction('C2H4(2) + X(1) + X(1) <=> C2H3X(74) + HX(75)', stick(1.240000e-04, 0.0, 6.4),
                 id='surface1-1')
#  Reaction index: Chemkin #2; RMG #141
#  Template reaction: Surface_Adsorption_Dissociative
#  Flux pairs: H2(110), HX(75); H2(110), HX(75);
#  Exact match found for rate rule [H-H;VacantSite1;VacantSite2]
#  Euclidian distance = 0
#  family: Surface_Adsorption_Dissociative

# surface1 Reaction 2
surface_reaction('X(1) + X(1) + H2(110) <=> HX(75) + HX(75)', stick(3.200000e-02, 0.0, 0.0),
                 id='surface1-2')
#  Reaction index: Chemkin #3; RMG #74
#  Template reaction: Surface_Adsorption_Dissociative
#  Flux pairs: C4H8-1(3), C2H5X(78); C4H8-1(3), C2H3X(74);
#  Exact match found for rate rule [C-C;VacantSite1;VacantSite2]
#  Euclidian distance = 0
#  family: Surface_Adsorption_Dissociative

# surface1 Reaction 3
surface_reaction('X(1) + X(1) + C4H8-1(3) <=> C2H5X(78) + C2H3X(74)', stick(6.595000e-04, 0.0, 9.0),
                 id='surface1-3')
#  Reaction index: Chemkin #4; RMG #137
#  Template reaction: Surface_EleyRideal_Addition_Multiple_Bond
#  Flux pairs: C2H4(2), C2H5X(78); HX(75), C2H5X(78);
#  Estimated using template [*H;R=R] for rate rule [*H;C=C]
#  Euclidian distance = 1.0
#  Multiplied by reaction path degeneracy 2.0
#  family: Surface_EleyRideal_Addition_Multiple_Bond

# surface1 Reaction 4
surface_reaction('C2H4(2) + HX(75) <=> C2H5X(78)', stick(1.000000e-01, 0.0, 7.17),
                 id='surface1-4')
#  Reaction index: Chemkin #5; RMG #154
#  Template reaction: Surface_Adsorption_Dissociative
#  Flux pairs: C2H6(116), HX(75); C2H6(116), C2H5X(78);
#  Exact match found for rate rule [CC-H;VacantSite1;VacantSite2]
#  Euclidian distance = 0
#  Multiplied by reaction path degeneracy 3.0
#  family: Surface_Adsorption_Dissociative

# surface1 Reaction 5
surface_reaction('X(1) + X(1) + C2H6(116) <=> C2H5X(78) + HX(75)', stick(2.700000e-02, 0.0, 9.5),
                 id='surface1-5')
#  Reaction index: Chemkin #6; RMG #135
#  Template reaction: Surface_Adsorption_Dissociative
#  Flux pairs: C4H6(48), C2H3X(74); C4H6(48), C2H3X(74);
#  Exact match found for rate rule [C-C;VacantSite1;VacantSite2]
#  Euclidian distance = 0
#  family: Surface_Adsorption_Dissociative

# surface1 Reaction 6
surface_reaction('X(1) + X(1) + C4H6(48) <=> C2H3X(74) + C2H3X(74)', stick(6.595000e-04, 0.0, 9.0),
                 id='surface1-6')
#  Reaction index: Chemkin #7; RMG #174
#  Template reaction: Surface_Adsorption_Dissociative
#  Flux pairs: C4H6(48), C4H5X(126); C4H6(48), HX(75);
#  Exact match found for rate rule [C-H;VacantSite1;VacantSite2]
#  Euclidian distance = 0
#  Multiplied by reaction path degeneracy 4.0
#  family: Surface_Adsorption_Dissociative

# surface1 Reaction 7
surface_reaction('X(1) + X(1) + C4H6(48) <=> C4H5X(126) + HX(75)', stick(1.240000e-04, 0.0, 6.4),
                 id='surface1-7')
#  Reaction index: Chemkin #8; RMG #244
#  Template reaction: Surface_Adsorption_Dissociative
#  Flux pairs: C6H8(50), C4H5X(126); C6H8(50), C2H3X(74);
#  Exact match found for rate rule [C-C;VacantSite1;VacantSite2]
#  Euclidian distance = 0
#  Multiplied by reaction path degeneracy 2.0
#  family: Surface_Adsorption_Dissociative

# surface1 Reaction 8
surface_reaction('X(1) + X(1) + C6H8(50) <=> C4H5X(126) + C2H3X(74)', stick(1.319000e-03, 0.0, 9.0),
                 id='surface1-8')
#  Reaction index: Chemkin #9; RMG #159
#  Template reaction: Surface_Adsorption_Dissociative
#  Flux pairs: C2H6(116), CH3X(77); C2H6(116), CH3X(77);
#  Estimated using template [C-C;VacantSite1;VacantSite2] for rate rule [CC;VacantSite1;VacantSite2]
#  Euclidian distance = 1.0
#  family: Surface_Adsorption_Dissociative

# surface1 Reaction 9
surface_reaction('X(1) + X(1) + C2H6(116) <=> CH3X(77) + CH3X(77)', stick(6.595000e-04, 0.0, 9.0),
                 id='surface1-9')
#  Reaction index: Chemkin #10; RMG #409
#  Template reaction: Surface_Adsorption_Dissociative
#  Flux pairs: CH4(118), HX(75); CH4(118), CH3X(77);
#  Exact match found for rate rule [C-H;VacantSite1;VacantSite2]
#  Euclidian distance = 0
#  Multiplied by reaction path degeneracy 2.0
#  family: Surface_Adsorption_Dissociative
#  Ea raised from 31.0 to 34.3 kJ/mol to match endothermicity of reaction.

# surface1 Reaction 10
surface_reaction('X(1) + X(1) + CH4(118) <=> HX(75) + CH3X(77)', stick(6.200000e-05, 0.0, 8.189),
                 id='surface1-10')
#  Reaction index: Chemkin #11; RMG #173
#  Template reaction: Surface_Adsorption_Dissociative
#  Flux pairs: C4H6(48), C4H5X(125); C4H6(48), HX(75);
#  Exact match found for rate rule [C-H;VacantSite1;VacantSite2]
#  Euclidian distance = 0
#  Multiplied by reaction path degeneracy 2.0
#  family: Surface_Adsorption_Dissociative

# surface1 Reaction 11
surface_reaction('X(1) + X(1) + C4H6(48) <=> C4H5X(125) + HX(75)', stick(6.200000e-05, 0.0, 6.4),
                 id='surface1-11')
#  Reaction index: Chemkin #12; RMG #237
#  Template reaction: Surface_Migration
#  Flux pairs: C4H5X(126), C4H5X(125);
#  Exact match found for rate rule [*C]
#  Euclidian distance = 0
#  family: Surface_Migration

# surface1 Reaction 12
surface_reaction('C4H5X(126) <=> C4H5X(125)', [7.336000e+12, 0.0, 14.18],
                 id='surface1-12')
#  Reaction index: Chemkin #13; RMG #75
#  Template reaction: Surface_Adsorption_Dissociative
#  Flux pairs: C4H8-1(3), C4H7X(79); C4H8-1(3), HX(75);
#  Exact match found for rate rule [C-H;VacantSite1;VacantSite2]
#  Euclidian distance = 0
#  Multiplied by reaction path degeneracy 2.0
#  family: Surface_Adsorption_Dissociative

# surface1 Reaction 13
surface_reaction('X(1) + X(1) + C4H8-1(3) <=> C4H7X(79) + HX(75)', stick(6.200000e-05, 0.0, 6.4),
                 id='surface1-13')
#  Reaction index: Chemkin #14; RMG #216
#  Template reaction: Surface_EleyRideal_Addition_Multiple_Bond
#  Flux pairs: C4H6(48), C4H7X(79); HX(75), C4H7X(79);
#  Exact match found for rate rule [*H;R=R]
#  Euclidian distance = 0
#  Multiplied by reaction path degeneracy 2.0
#  family: Surface_EleyRideal_Addition_Multiple_Bond

# surface1 Reaction 14
surface_reaction('C4H6(48) + HX(75) <=> C4H7X(79)', stick(1.000000e-01, 0.0, 7.17),
                 id='surface1-14')
#  Reaction index: Chemkin #15; RMG #77
#  Template reaction: Surface_Adsorption_Dissociative
#  Flux pairs: C4H8-1(3), C4H7X(81); C4H8-1(3), HX(75);
#  Exact match found for rate rule [C-H;VacantSite1;VacantSite2]
#  Euclidian distance = 0
#  family: Surface_Adsorption_Dissociative

# surface1 Reaction 15
surface_reaction('X(1) + X(1) + C4H8-1(3) <=> C4H7X(81) + HX(75)', stick(3.100000e-05, 0.0, 6.4),
                 id='surface1-15')
#  Reaction index: Chemkin #16; RMG #448
#  Template reaction: Surface_Migration
#  Flux pairs: C4H7X(79), C4H7X(81);
#  Exact match found for rate rule [*C]
#  Euclidian distance = 0
#  family: Surface_Migration

# surface1 Reaction 16
surface_reaction('C4H7X(79) <=> C4H7X(81)', [7.336000e+12, 0.0, 14.18],
                 id='surface1-16')
#  Reaction index: Chemkin #17; RMG #78
#  Template reaction: Surface_Adsorption_Dissociative
#  Flux pairs: C4H8-1(3), C4H7X(82); C4H8-1(3), HX(75);
#  Exact match found for rate rule [C-H;VacantSite1;VacantSite2]
#  Euclidian distance = 0
#  Multiplied by reaction path degeneracy 2.0
#  family: Surface_Adsorption_Dissociative

# surface1 Reaction 17
surface_reaction('X(1) + X(1) + C4H8-1(3) <=> C4H7X(82) + HX(75)', stick(6.200000e-05, 0.0, 6.4),
                 id='surface1-17')
#  Reaction index: Chemkin #18; RMG #472
#  Template reaction: Surface_Migration
#  Flux pairs: C4H7X(81), C4H7X(82);
#  Exact match found for rate rule [*C]
#  Euclidian distance = 0
#  Multiplied by reaction path degeneracy 2.0
#  family: Surface_Migration

# surface1 Reaction 18
surface_reaction('C4H7X(81) <=> C4H7X(82)', [1.467200e+13, 0.0, 14.18],
                 id='surface1-18')
#  Reaction index: Chemkin #19; RMG #471
#  Template reaction: Surface_Migration
#  Flux pairs: C4H7X(81), C4H7X(285);
#  Exact match found for rate rule [*C]
#  Euclidian distance = 0
#  family: Surface_Migration

# surface1 Reaction 19
surface_reaction('C4H7X(81) <=> C4H7X(285)', [7.336000e+12, 0.0, 14.18],
                 id='surface1-19')
#  Reaction index: Chemkin #20; RMG #76
#  Template reaction: Surface_Adsorption_Dissociative
#  Flux pairs: C4H8-1(3), C4H7X(80); C4H8-1(3), HX(75);
#  Exact match found for rate rule [C-H;VacantSite1;VacantSite2]
#  Euclidian distance = 0
#  Multiplied by reaction path degeneracy 3.0
#  family: Surface_Adsorption_Dissociative

# surface1 Reaction 20
surface_reaction('X(1) + X(1) + C4H8-1(3) <=> C4H7X(80) + HX(75)', stick(9.300000e-05, 0.0, 9.39),
                 id='surface1-20')
#  Reaction index: Chemkin #21; RMG #131
#  Template reaction: Surface_EleyRideal_Addition_Multiple_Bond
#  Flux pairs: C2H4(2), C4H7X(80); C2H3X(74), C4H7X(80);
#  Estimated using template [*C;R=R] for rate rule [*C;C=C]
#  Euclidian distance = 1.0
#  Multiplied by reaction path degeneracy 2.0
#  family: Surface_EleyRideal_Addition_Multiple_Bond

# surface1 Reaction 21
surface_reaction('C2H4(2) + C2H3X(74) <=> C4H7X(80)', stick(2.000000e-03, 0.0, 16.41),
                 id='surface1-21')
#  Reaction index: Chemkin #22; RMG #217
#  Template reaction: Surface_EleyRideal_Addition_Multiple_Bond
#  Flux pairs: C4H6(48), C4H7X(80); HX(75), C4H7X(80);
#  Exact match found for rate rule [*H;R=R]
#  Euclidian distance = 0
#  Multiplied by reaction path degeneracy 2.0
#  family: Surface_EleyRideal_Addition_Multiple_Bond

# surface1 Reaction 22
surface_reaction('C4H6(48) + HX(75) <=> C4H7X(80)', stick(1.000000e-01, 0.0, 7.17),
                 id='surface1-22')
#  Reaction index: Chemkin #23; RMG #447
#  Template reaction: Surface_Migration
#  Flux pairs: C4H7X(79), C4H7X(80);
#  Exact match found for rate rule [*C]
#  Euclidian distance = 0
#  Multiplied by reaction path degeneracy 3.0
#  family: Surface_Migration

# surface1 Reaction 23
surface_reaction('C4H7X(79) <=> C4H7X(80)', [2.200800e+13, 0.0, 16.884],
                 id='surface1-23')
#  Reaction index: Chemkin #24; RMG #521
#  Template reaction: Surface_Adsorption_Dissociative
#  Flux pairs: C4H8(325), HX(75); C4H8(325), C4H7X(285);
#  Exact match found for rate rule [C-H;VacantSite1;VacantSite2]
#  Euclidian distance = 0
#  Multiplied by reaction path degeneracy 3.0
#  family: Surface_Adsorption_Dissociative

# surface1 Reaction 24
surface_reaction('X(1) + X(1) + C4H8(325) <=> HX(75) + C4H7X(285)', stick(9.300000e-05, 0.0, 6.4),
                 id='surface1-24')
#  Reaction index: Chemkin #25; RMG #271
#  Template reaction: Surface_Adsorption_Dissociative
#  Flux pairs: C6H8(50), C6H7X(181); C6H8(50), HX(75);
#  Exact match found for rate rule [C-H;VacantSite1;VacantSite2]
#  Euclidian distance = 0
#  Multiplied by reaction path degeneracy 4.0
#  family: Surface_Adsorption_Dissociative

# surface1 Reaction 25
surface_reaction('X(1) + X(1) + C6H8(50) <=> C6H7X(181) + HX(75)', stick(1.240000e-04, 0.0, 6.4),
                 id='surface1-25')
#  Reaction index: Chemkin #26; RMG #270
#  Template reaction: Surface_Adsorption_Dissociative
#  Flux pairs: C6H8(50), C6H7X(180); C6H8(50), HX(75);
#  Exact match found for rate rule [C-H;VacantSite1;VacantSite2]
#  Euclidian distance = 0
#  Multiplied by reaction path degeneracy 2.0
#  family: Surface_Adsorption_Dissociative

# surface1 Reaction 26
surface_reaction('X(1) + X(1) + C6H8(50) <=> C6H7X(180) + HX(75)', stick(6.200000e-05, 0.0, 6.4),
                 id='surface1-26')
#  Reaction index: Chemkin #27; RMG #680
#  Template reaction: Surface_Migration
#  Flux pairs: C6H7X(181), C6H7X(180);
#  Exact match found for rate rule [*C]
#  Euclidian distance = 0
#  family: Surface_Migration

# surface1 Reaction 27
surface_reaction('C6H7X(181) <=> C6H7X(180)', [7.336000e+12, 0.0, 14.18],
                 id='surface1-27')
#  Reaction index: Chemkin #28; RMG #269
#  Template reaction: Surface_Adsorption_Dissociative
#  Flux pairs: C6H8(50), C6H7X(179); C6H8(50), HX(75);
#  Exact match found for rate rule [C-H;VacantSite1;VacantSite2]
#  Euclidian distance = 0
#  Multiplied by reaction path degeneracy 2.0
#  family: Surface_Adsorption_Dissociative

# surface1 Reaction 28