units(length='cm', time='s', quantity='mol', act_energy='kcal/mol')

ideal_gas(name='gas',
          elements="H D T C Ci O Oi N Ne Ar He Si S Cl I X",
          species="""N2          Ne          CH3OH(2)    H2O(3)
                     O2(4)       CO2(5)      H2(6)       CO(7)
                     CH4(8)      C2H6(9)     CH2O(10)    CH3(11)
                     C3H8(12)    H(13)       C2H5(14)    HCO(15)
                     CH3CHO(16)  OH(17)      C2H4(18)""",
          reactions='gas-*',
          transport='Mix',
          initial_state=state(temperature=300.0, pressure=OneAtm))

ideal_interface(name='surface1',
                elements="H D T C Ci O Oi N Ne Ar He Si S Cl I X",
                species="""X(1)        HX(19)      OX(20)      CH3X(21)
                          HOX(22)     H2OX(23)    CO2X(24)    OCX(25)
                          CX(26)      CH2X(27)    CHX(28)     CH3OX(49)
                          CH3OX(50)   CH4OX(51)   CH2OX(189)  SX(226)""",
                site_density=2.483e-09,
                phases="gas",
          reactions='surface1-*',
                initial_state=state(temperature=300.0, pressure=OneAtm))

#-------------------------------------------------------------------------------
# Element data
#-------------------------------------------------------------------------------

element(symbol='Ci', atomic_mass=13.003)
element(symbol='D', atomic_mass=2.014)
element(symbol='Oi', atomic_mass=18.0)
element(symbol='T', atomic_mass=3.016)
element(symbol='X', atomic_mass=195.083)
#-------------------------------------------------------------------------------
# Species data
#-------------------------------------------------------------------------------

species(name='N2',
        atoms='N:2',
        thermo=(NASA([200.00, 1000.00],
                     [ 3.53101000E+00, -1.23661000E-04, -5.02999000E-07,
                       2.43531000E-09, -1.40881000E-12, -1.04698000E+03,
                       2.96747000E+00]),
                NASA([1000.00, 6000.00],
                     [ 2.95258000E+00,  1.39690000E-03, -4.92632000E-07,
                       7.86010000E-11, -4.60755000E-15, -9.23949000E+02,
                       5.87189000E+00])),
        transport=gas_transport(geom='linear',
                                diam=3.621,
                                well_depth=97.53,
                                polar=1.76,
                                rot_relax=4.0))

species(name='Ne',
        atoms='Ne:1',
        thermo=(NASA([200.00, 1000.00],
                     [ 2.50000000E+00,  0.00000000E+00,  0.00000000E+00,
                       0.00000000E+00,  0.00000000E+00, -7.45375000E+02,
                       3.35532000E+00]),
                NASA([1000.00, 6000.00],
                     [ 2.50000000E+00,  0.00000000E+00,  0.00000000E+00,
                       0.00000000E+00,  0.00000000E+00, -7.45375000E+02,
                       3.35532000E+00])),
        transport=gas_transport(geom='atom',
                                diam=3.758,
                                well_depth=148.6))

species(name='CH3OH(2)',
        atoms='C:1 H:4 O:1',
        thermo=(NASA([100.00, 1035.75],
                     [ 3.84006221E+00,  1.38241909E-03,  1.91667221E-05,
                      -2.01568699E-08,  6.39102422E-12, -2.56083087E+04,
                       5.90978110E+00]),
                NASA([1035.75, 5000.00],
                     [ 2.79184262E+00,  1.15827858E-02, -4.51551962E-06,
                       8.21206786E-10, -5.67063316E-14, -2.57211672E+04,
                       9.41061788E+00])),
        transport=gas_transport(geom='nonlinear',
                                diam=3.626,
                                well_depth=481.8,
                                rot_relax=1.0))

species(name='H2O(3)',
        atoms='H:2 O:1',
        thermo=(NASA([100.00, 1130.25],
                     [ 4.05763720E+00, -7.87951343E-04,  2.90882564E-06,
                      -1.47524910E-09,  2.12866372E-13, -3.02815867E+04,
                      -3.11369025E-01]),
                NASA([1130.25, 5000.00],
                     [ 2.84324104E+00,  2.75110073E-03, -7.81040007E-07,
                       1.07245603E-10, -5.79408217E-15, -2.99586086E+04,
                       5.91047337E+00])),
        transport=gas_transport(geom='nonlinear',
                                diam=2.641,
                                well_depth=809.102,
                                polar=1.76,
                                rot_relax=4.0))

species(name='O2(4)',
        atoms='O:2',
        thermo=(NASA([100.00, 1074.56],
                     [ 3.53732118E+00, -1.21570207E-03,  5.31615377E-06,
                      -4.89440387E-09,  1.45843816E-12, -1.03858843E+03,
                       4.68368631E+00]),
                NASA([1074.56, 5000.00],
                     [ 3.15382772E+00,  1.67803228E-03, -7.69967779E-07,
                       1.51273960E-10, -1.08781182E-14, -1.04082030E+03,
                       6.16751919E+00])),
        transport=gas_transport(geom='linear',
                                diam=3.467,
                                well_depth=106.7))

species(name='CO2(5)',
        atoms='C:1 O:2',
        thermo=(NASA([100.00, 978.22],
                     [ 3.28083821E+00,  2.50193291E-03,  8.08164577E-06,
                      -1.20506695E-08,  4.66526645E-12, -4.84008301E+04,
                       6.00083693E+00]),
                NASA([978.22, 5000.00],
                     [ 4.67429780E+00,  2.60958835E-03, -9.85659769E-07,
                       1.95706729E-10, -1.49830320E-14, -4.89512267E+04,
                      -2.11090702E+00])),
        transport=gas_transport(geom='linear',
                                diam=3.941,
                                well_depth=195.201))

species(name='H2(6)',
        atoms='H:2',
        thermo=(NASA([100.00, 1959.08],
                     [ 3.43536411E+00,  2.12710383E-04, -2.78625110E-07,
                       3.40267219E-10, -7.76032129E-14, -1.03135984E+03,
                      -3.90841731E+00]),
                NASA([1959.08, 5000.00],
                     [ 2.78816619E+00,  5.87640475E-04,  1.59010635E-07,
                      -5.52739465E-11,  4.34311304E-15, -5.96144481E+02,
                       1.12730527E-01])),
        transport=gas_transport(geom='linear',
                                diam=2.833,
                                well_depth=59.7))

species(name='CO(7)',
        atoms='C:1 O:1',
        thermo=(NASA([100.00, 1571.64],
                     [ 3.56837982E+00, -8.52124063E-04,  2.48917390E-06,
                      -1.56330672E-09,  3.13594213E-13, -1.42842549E+04,
                       3.57912239E+00]),
                NASA([1571.64, 5000.00],
                     [ 2.91306987E+00,  1.64657389E-03, -6.88612820E-07,
                       1.21036930E-10, -7.84014743E-15, -1.41808862E+04,
                       6.71043900E+00])),
        transport=gas_transport(geom='linear',
                                diam=3.69,
                                well_depth=91.7,
                                polar=1.76,
                                rot_relax=4.0))

species(name='CH4(8)',
        atoms='C:1 H:4',
        thermo=(NASA([100.00, 1084.15],
                     [ 4.20540072E+00, -5.35540640E-03,  2.51117636E-05,
                      -2.13755910E-08,  5.97496145E-12, -1.01619427E+04,
                      -9.21226951E-01]),
                NASA([1084.15, 5000.00],
                     [ 9.08349401E-01,  1.14539479E-02, -4.57166053E-06,
                       8.29173612E-10, -5.66300105E-14, -9.72001110E+03,
                       1.39926204E+01])),
        transport=gas_transport(geom='nonlinear',
                                diam=3.746,
                                well_depth=141.4,
                                polar=2.6,
                                rot_relax=13.0))

species(name='C2H6(9)',
        atoms='C:2 H:6',
        thermo=(NASA([100.00, 1012.42],
                     [ 3.72239308E+00,  1.65083640E-03,  3.44175601E-05,
                      -3.76858321E-08,  1.24450696E-11, -1.15575902E+04,
                       4.68247939E+00]),
                NASA([1012.42, 5000.00],
                     [ 2.82848184E+00,  1.73040581E-02, -6.73334315E-06,
                       1.23742041E-09, -8.65676548E-14, -1.19978077E+04,
                       5.93812118E+00])),
        transport=gas_transport(geom='nonlinear',
                                diam=4.302,
                                well_depth=252.3,
                                rot_relax=1.5))

species(name='CH2O(10)',
        atoms='C:1 H:2 O:1',
        thermo=(NASA([100.00, 1070.44],
                     [ 4.12927829E+00, -4.08401633E-03,  2.03229448E-05,
                      -1.83524377E-08,  5.37976060E-12, -1.44294640E+04,
                       3.22418365E+00]),
                NASA([1070.44, 5000.00],
                     [ 2.21172293E+00,  7.94265924E-03, -3.34193191E-06,
                       6.28471724E-10, -4.40431711E-14, -1.42974450E+04,
                       1.13049069E+01])),
        transport=gas_transport(geom='nonlinear',
                                diam=3.59,
                                well_depth=498.0,
                                rot_relax=2.0))

species(name='CH3(11)',
        atoms='C:1 H:3',
        thermo=(NASA([100.00, 697.63],
                     [ 3.96043178E+00,  5.92930195E-04,  8.78578951E-06,
                      -9.88035524E-09,  3.63236942E-12,  1.64218817E+04,
                       3.39862787E-01]),
                NASA([697.63, 5000.00],
                     [ 3.09511262E+00,  5.55429714E-03, -1.88158748E-06,
                       3.13334732E-10, -2.05194931E-14,  1.65426190E+04,
                       4.20297474E+00])),
        transport=gas_transport(geom='nonlinear',
                                diam=3.8,
                                well_depth=144.0))

species(name='C3H8(12)',
        atoms='C:3 H:8',
        thermo=(NASA([100.00, 989.99],
                     [ 3.06337235E+00,  1.29213276E-02,  3.47037401E-05,
                      -4.70952219E-08,  1.71386763E-11, -1.43905793E+04,
                       1.07835211E+01]),
                NASA([989.99, 5000.00],
                     [ 5.60435845E+00,  2.19529500E-02, -8.22084738E-06,
                       1.50104968E-09, -1.05636167E-13, -1.58393862E+04,
                      -6.22599672E+00])),
        transport=gas_transport(geom='nonlinear',
                                diam=4.982,
                                well_depth=266.801,
                                rot_relax=1.0))

species(name='H(13)',
        atoms='H:1',
        thermo=(NASA([100.00, 4383.16],
                     [ 2.50000000E+00, -2.38914167E-13,  3.12709494E-16,
                      -1.33367320E-19,  1.74989654E-23,  2.54742178E+04,
                      -4.44972897E-01]),
                NASA([4383.16, 5000.00],
                     [ 2.50003447E+00, -3.04996987E-08,  1.01101187E-11,
                      -1.48796738E-15,  8.20356170E-20,  2.54741866E+04,
                      -4.45191184E-01])),
        transport=gas_transport(geom='atom',
                                diam=2.05,
                                well_depth=145.0))

species(name='C2H5(14)',
        atoms='C:2 H:5',
        thermo=(NASA([100.00, 1006.87],
                     [ 3.68745380E+00,  3.06903510E-03,  2.55868228E-05,
                      -2.94070210E-08,  9.94049079E-12,  1.31153653E+04,
                       6.96689006E+00]),
                NASA([1006.87, 5000.00],
                     [ 3.53785893E+00,  1.37310809E-02, -5.29559886E-06,
                       9.71471661E-10, -6.80280220E-14,  1.26351584E+04,
                       5.15538530E+00])),
        transport=gas_transport(geom='nonlinear',
                                diam=4.302,
                                well_depth=252.3,
                                rot_relax=1.5))

species(name='HCO(15)',
        atoms='C:1 H:1 O:1',
        thermo=(NASA([100.00, 1112.10],
                     [ 4.05936498E+00, -1.73847479E-03,  9.14984441E-06,
                      -8.01135632E-09,  2.25738876E-12,  3.84377613E+03,
                       3.32449376E+00]),
                NASA([1112.10, 5000.00],
                     [ 3.05135606E+00,  4.11707384E-03, -1.75586963E-06,
                       3.29304046E-10, -2.29175030E-14,  3.93008180E+03,
                       7.67467582E+00])),
        transport=gas_transport(geom='nonlinear',
                                diam=3.59,
                                well_depth=498.0))

species(name='CH3CHO(16)',
        atoms='C:2 H:4 O:1',
        thermo=(NASA([100.00, 1028.81],
                     [ 3.57992397E+00,  5.18983474E-03,  2.26897496E-05,
                      -2.73742644E-08,  9.28479682E-12, -2.13697374E+04,
                       8.96971567E+00]),
                NASA([1028.81, 5000.00],
                     [ 4.08563906E+00,  1.39061194E-02, -5.59370172E-06,
                       1.04609264E-09, -7.38738518E-14, -2.20391345E+04,
                       3.76801423E+00])),
        transport=gas_transport(geom='nonlinear',
                                diam=3.97,
                                well_depth=436.0,
                                rot_relax=2.0))

species(name='OH(17)',
        atoms='H:1 O:1',
        thermo=(NASA([100.00, 1145.76],
                     [ 3.51456841E+00,  2.92731942E-05, -5.32149835E-07,
                       1.01947431E-09, -3.85939061E-13,  3.41425418E+03,
                       2.10434749E+00]),
                NASA([1145.76, 5000.00],
                     [ 3.07193709E+00,  6.04020086E-04, -1.39807303E-08,
                      -2.13440498E-11,  2.48061111E-15,  3.57938799E+03,
                       4.57801556E+00])),
        transport=gas_transport(geom='linear',
                                diam=2.75,
                                well_depth=80.0))

species(name='C2H4(18)',
        atoms='C:2 H:4',
        thermo=(NASA([100.00, 979.37],
                     [ 3.97469045E+00, -4.75813325E-03,  4.16772624E-05,
                      -4.51377676E-08,  1.54218287E-11,  4.91540855E+03,
                       3.62439976E+00]),
                NASA([979.37, 5000.00],
                     [ 3.55670229E+00,  1.10625819E-02, -4.17009559E-06,
                       7.85564219E-10, -5.70042086E-14,  4.32042473E+03,
                       2.17665377E+00])),
        transport=gas_transport(geom='nonlinear',
                                diam=3.971,
                                well_depth=280.8,
                                rot_relax=1.5))

species(name='X(1)',
        atoms='X:1',
        thermo=(NASA([100.00, 1554.81],
                     [ 7.10134880E-03, -4.25615041E-05,  8.98521156E-08,
                      -7.80182565E-11,  2.32462166E-14, -8.76099414E-01,
                      -3.11209498E-02]),
                NASA([1554.81, 5000.00],
                     [ 1.60301287E-01, -2.52237396E-04,  1.14182282E-07,
                      -1.21473809E-11,  3.85806589E-16, -7.08108147E+01,
                      -9.09535600E-01])))

species(name='HX(19)',
        atoms='H:1 X:1',
        thermo=(NASA([100.00, 952.91],
                     [-3.80957846E-01,  5.47219393E-03,  2.60946928E-06,
                      -9.65008412E-09,  4.63967474E-12, -3.37659612E+03,
                       1.01722845E+00]),
                NASA([952.91, 5000.00],
                     [ 2.80337105E+00, -5.41002993E-04,  4.99482316E-07,
                      -7.54902555E-11,  3.06721398E-15, -4.31733471E+03,
                      -1.59435356E+01])))

species(name='OX(20)',
        atoms='O:1 X:1',
        thermo=(NASA([100.00, 888.25],
                     [-7.59018036E-01,  1.89869128E-02, -3.82476163E-05,
                       3.43561864E-08, -1.13976013E-11, -1.72389492E+04,
                       1.76019150E+00]),
                NASA([888.25, 5000.00],
                     [ 1.89894867E+00,  2.03293217E-03, -1.19975265E-06,
                       2.32677501E-10, -1.53505623E-14, -1.75145004E+04,
                      -9.64111055E+00])))

species(name='CH3X(21)',
        atoms='C:1 H:3 X:1',
        thermo=(NASA([100.00, 848.30],
                     [-1.21090611E+00,  2.92390831E-02, -4.49011672E-05,
                       3.86010689E-08, -1.30361474E-11, -6.12022276E+03,
                       6.80940157E+00]),
                NASA([848.30, 5000.00],
                     [ 1.62291116E+00,  1.12987225E-02, -5.08316650E-06,
                       9.46832954E-10, -6.42885005E-14, -6.43628865E+03,
                      -5.42502394E+00])))

species(name='HOX(22)',
        atoms='H:1 O:1 X:1',
        thermo=(NASA([100.00, 914.54],
                     [-1.29521674E+00,  3.36486200E-02, -7.07755341E-05,
                       6.54367721E-08, -2.19434475E-11, -1.93470579E+04,
                       4.37653089E+00]),
                NASA([914.54, 5000.00],
                     [ 2.43538338E+00,  4.64605477E-03, -2.39990873E-06,
                       4.26359701E-10, -2.60614408E-14, -1.94989025E+04,
                      -1.03877722E+01])))

species(name='H2OX(23)',
        atoms='H:2 O:1 X:1',
        thermo=(NASA([100.00, 912.85],
                     [-1.34340519E+00,  3.66696015E-02, -7.99482515E-05,
                       7.74127762E-08, -2.68666529E-11, -3.23490303E+04,
                       1.10237802E+01]),
                NASA([912.85, 5000.00],
                     [ 1.12159987E+00,  8.16637387E-03, -4.02356932E-06,
                       7.20418131E-10, -4.51440018E-14, -3.20615278E+04,
                       3.39609648E+00])))

species(name='CO2X(24)',
        atoms='C:1 O:2 X:1',
        thermo=(NASA([100.00, 953.58],
                     [ 3.09270665E+00,  5.29257511E-03,  8.99525075E-06,
                      -1.67139901E-08,  7.04956887E-12, -4.52128361E+04,
                      -5.10062523E+00]),
                NASA([953.58, 5000.00],
                     [ 5.99797425E+00,  2.27495290E-03, -6.81151398E-07,
                       1.34446413E-10, -1.11521352E-14, -4.61838021E+04,
                      -2.11646569E+01])))

species(name='OCX(25)',
        atoms='C:1 O:1 X:1',
        thermo=(NASA([100.00, 891.32],
                     [-1.38218471E+00,  3.75310911E-02, -8.29779551E-05,
                       8.09731714E-08, -2.85485057E-11, -3.45176014E+04,
                       4.35463035E+00]),
                NASA([891.32, 5000.00],
                     [ 1.38101738E+00,  8.05699435E-03, -4.64297360E-06,
                       8.91142754E-10, -5.90024841E-14, -3.43319731E+04,
                      -4.85379925E+00])))

species(name='CX(26)',
        atoms='C:1 X:1',
        thermo=(NASA([100.00, 1401.12],
                     [-6.04857256E-01,  1.10908355E-02, -1.34369676E-05,
                       7.18239043E-09, -1.40685313E-12,  6.24479347E+03,
                       1.48480345E+00]),
                NASA([1401.12, 5000.00],
                     [ 3.08076591E+00, -6.87473269E-04,  5.17593613E-07,
                      -9.73030868E-11,  6.24250814E-15,  5.33531584E+03,
                      -1.70991710E+01])))

species(name='CH2X(27)',
        atoms='C:1 H:2 X:1',
        thermo=(NASA([100.00, 1199.84],
                     [-1.02006572E+00,  2.03778530E-02, -2.17291021E-05,
                       1.15868493E-08, -2.38469826E-12, -3.52138311E+02,
                       2.99160375E+00]),
                NASA([1199.84, 5000.00],
                     [ 3.89285623E+00,  3.99892031E-03, -1.25227793E-06,
                       2.09081002E-10, -1.39642186E-14, -1.53105772E+03,
                      -2.16053785E+01])))

species(name='CHX(28)',
        atoms='C:1 H:1 X:1',
        thermo=(NASA([100.00, 1596.82],
                     [-9.66375286E-01,  1.63179008E-02, -1.75392291E-05,
                       8.64095972E-09, -1.55501482E-12, -3.35441189E+03,
                       2.54982388E+00]),
                NASA([1596.82, 5000.00],
                     [ 4.21481432E+00,  2.18380791E-04,  5.15663412E-07,
                      -1.20801040E-10,  8.35333025E-15, -4.61122814E+03,
                      -2.36254728E+01])))

species(name='CH3OX(49)',
        atoms='C:1 H:3 O:1 X:1',
        thermo=(NASA([100.00, 857.63],
                     [-1.68429396E+00,  4.28032876E-02, -7.50819566E-05,
                       7.03735216E-08, -2.50945792E-11, -2.00153790E+04,
                       7.76448563E+00]),
                NASA([857.63, 5000.00],
                     [ 1.14809427E+00,  1.71342011E-02, -8.39624904E-06,
                       1.59804667E-09, -1.08972905E-13, -2.00430138E+04,
                      -2.79387857E+00])))

species(name='CH3OX(50)',
        atoms='C:1 H:3 O:1 X:1',
        thermo=(NASA([100.00, 813.94],
                     [-1.68232339E+00,  3.97249727E-02, -5.96108905E-05,
                       4.86923080E-08, -1.58050277E-11, -3.51510706E+04,
                       8.26688733E+00]),
                NASA([813.94, 5000.00],
                     [ 3.25579671E+00,  1.30434721E-02, -5.99158206E-06,
                       1.13138301E-09, -7.77148580E-14, -3.58749816E+04,
                      -1.40489187E+01])))

species(name='CH4OX(51)',
        atoms='C:1 H:4 O:1 X:1',
        thermo=(NASA([100.00, 850.41],
                     [-1.64010182E+00,  4.09976870E-02, -6.66167251E-05,
                       6.12113937E-08, -2.17734945E-11, -3.05087358E+04,
                       1.38245470E+01]),
                NASA([850.41, 5000.00],
                     [ 1.01837680E+00,  1.82966124E-02, -8.58976010E-06,
                       1.62231227E-09, -1.10732408E-13, -3.05921911E+04,
                       3.59750989E+00])))

species(name='CH2OX(189)',
        atoms='C:1 H:2 O:1 X:1',
        thermo=(NASA([100.00, 648.68],
                     [-1.35006925E+00,  3.25596526E-02, -4.55942938E-05,
                       3.22937202E-08, -8.15940482E-12, -2.61016926E+04,
                       6.84720965E+00]),
                NASA([648.68, 5000.00],
                     [ 2.89882331E+00,  1.07011121E-02, -5.08847848E-06,
                       9.82676556E-10, -6.86676475E-14, -2.67442738E+04,
                      -1.25163488E+01])))

species(name='SX(226)',
        atoms='C:2 H:3 O:1 X:1',
        thermo=(NASA([100.00, 937.23],
                     [ 3.39000616E+00,  5.22582959E-03,  3.21821889E-05,
                      -4.72170316E-08,  1.89673607E-11, -2.48495238E+04,
                      -6.19735863E+00]),
                NASA([937.23, 5000.00],
                     [ 8.31415051E+00,  5.09201361E-03, -1.02409222E-06,
                       1.75449062E-10, -1.53402296E-14, -2.66896757E+04,
                      -3.45271017E+01])))

#-------------------------------------------------------------------------------
# Reaction data
#-------------------------------------------------------------------------------
#  Reaction index: Chemkin #1; RMG #23
#  Library reaction: BurkeH2O2inN2
#  Flux pairs: H2(6), H(13); H2(6), H(13);

# Reaction 1
three_body_reaction('H2(6) + M <=> H(13) + H(13) + M', [4.577000e+19, -1.4, 104.38],
                    efficiencies='CO(7):1.9 CO2(5):3.8 H2(6):2.5 H2O(3):12.0',
                    id='gas-1')
#  Reaction index: Chemkin #2; RMG #21
#  Library reaction: BurkeH2O2inN2
#  Flux pairs: OH(17), H2O(3); H2(6), H(13);

# Reaction 2
reaction('OH(17) + H2(6) <=> H(13) + H2O(3)', [2.160000e+08, 1.51, 3.43],
         id='gas-2')
#  Reaction index: Chemkin #3; RMG #30
#  Library reaction: BurkeH2O2inN2
#  Flux pairs: H2O(3), H(13); H2O(3), OH(17);

# Reaction 3
three_body_reaction('H2O(3) + M <=> H(13) + OH(17) + M', [6.064000e+27, -3.322, 120.79],
                    efficiencies='CO(7):1.9 CO2(5):3.8 H2(6):3.0 H2O(3):0.0 N2:2.0 O2(4):1.5',
                    id='gas-3')
#  Reaction index: Chemkin #4; RMG #31
#  Library reaction: BurkeH2O2inN2
#  Flux pairs: H2O(3), H2O(3); H2O(3), H(13); H2O(3), OH(17);

# Reaction 4
reaction('H2O(3) + H2O(3) <=> H(13) + OH(17) + H2O(3)', [1.006000e+26, -2.44, 120.18],
         id='gas-4')
#  Reaction index: Chemkin #5; RMG #45
#  Library reaction: BurkeH2O2inN2
#  Flux pairs: OH(17), O2(4); OH(17), H2(6);

# Reaction 5
reaction('OH(17) + OH(17) <=> O2(4) + H2(6)', [2.000000e+11, 0.51, 50.5],
         id='gas-5')
#  Reaction index: Chemkin #6; RMG #50
#  Template reaction: R_Recombination
#  Flux pairs: OH(17), CH3OH(2); CH3(11), CH3OH(2);
#  Matched reaction 73 CH3 + OH <=> CH4O in R_Recombination/training
#  This reaction matched rate rule [Root_N-1R->H_N-1CNOS->N_1COS->O_2R->C]
#  family: R_Recombination

# Reaction 6
reaction('OH(17) + CH3(11) <=> CH3OH(2)', [6.030000e+13, 0.0, 0.0],
         id='gas-6')
#  Reaction index: Chemkin #7; RMG #54
#  Template reaction: R_Recombination
#  Flux pairs: CH3(11), CH4(8); H(13), CH4(8);
#  Matched reaction 57 H + CH3 <=> CH4 in R_Recombination/training
#  This reaction matched rate rule [Root_1R->H_N-2R->S_N-2CHNO->H_N-2CNO-inRing_N-2CNO->O]
#  family: R_Recombination

# Reaction 7
reaction('H(13) + CH3(11) <=> CH4(8)', [1.930000e+14, 0.0, 0.27],
         id='gas-7')
#  Reaction index: Chemkin #8; RMG #56
#  Template reaction: R_Recombination
#  Flux pairs: CH3(11), C2H6(9); CH3(11), C2H6(9);
#  Matched reaction 9 CH3 + CH3 <=> C2H6 in R_Recombination/training
#  This reaction matched rate rule [Root_N-1R->H_N-1CNOS->N_N-1COS->O_1CS->C_N-1C-inRing]
#  family: R_Recombination

# Reaction 8
reaction('CH3(11) + CH3(11) <=> C2H6(9)', [9.450000e+14, -0.538, 0.135],
         id='gas-8')
#  Reaction index: Chemkin #9; RMG #57
#  Template reaction: R_Recombination
#  Flux pairs: C2H5(14), C2H6(9); H(13), C2H6(9);
#  Matched reaction 58 H + C2H5 <=> C2H6-2 in R_Recombination/training
#  This reaction matched rate rule [Root_1R->H_N-2R->S_N-2CHNO->H_N-2CNO-inRing_Ext-2CNO-R_N-Sp-3R!H=2CCNNOO_N-2CNO->O_3R!H->C_Sp-3C-2CN]
#  family: R_Recombination

# Reaction 9
reaction('H(13) + C2H5(14) <=> C2H6(9)', [1.000000e+14, 0.0, 0.0],
         id='gas-9')
#  Reaction index: Chemkin #10; RMG #58
#  Template reaction: 1,2_Insertion_CO
#  Flux pairs: CO(7), CH2O(10); H2(6), CH2O(10);
#  Matched reaction 2 H2 + CO <=> CH2O in 1,2_Insertion_CO/training
#  This reaction matched rate rule [CO;H2]
#  family: 1,2_Insertion_CO

# Reaction 10
reaction('H2(6) + CO(7) <=> CH2O(10)', [2.890000e+09, 1.16, 82.1],
         id='gas-10')
#  Reaction index: Chemkin #11; RMG #59
#  Template reaction: R_Recombination
#  Flux pairs: HCO(15), CH2O(10); H(13), CH2O(10);
#  Matched reaction 63 H + CHO <=> CH2O in R_Recombination/training
#  This reaction matched rate rule [Root_1R->H_N-2R->S_N-2CHNO->H_N-2CNO-inRing_Ext-2CNO-R_Sp-3R!H=2CCNNOO_3R!H->O]
#  family: R_Recombination

# Reaction 11
reaction('H(13) + HCO(15) <=> CH2O(10)', [4.680000e+10, 0.0, -4.53],
         id='gas-11')
#  Reaction index: Chemkin #12; RMG #63
#  Template reaction: R_Recombination
#  Flux pairs: C2H5(14), C3H8(12); CH3(11), C3H8(12);
#  Matched reaction 10 CH3 + C2H5 <=> C3H8 in R_Recombination/training
#  This reaction matched rate rule [Root_N-1R->H_N-1CNOS->N_N-1COS->O_1CS->C_N-1C-inRing_Ext-2R-R_Sp-3R!H-2R_3R!H->C_2R->C]
#  family: R_Recombination

# Reaction 12
reaction('CH3(11) + C2H5(14) <=> C3H8(12)', [1.230000e+15, -0.562, 0.021],
         id='gas-12')
#  Reaction index: Chemkin #13; RMG #68
#  Template reaction: R_Addition_MultipleBond
#  Flux pairs: C2H4(18), C2H5(14); H(13), C2H5(14);
#  Matched reaction 2541 H + C2H4 <=> C2H5-2 in R_Addition_MultipleBond/training
#  This reaction matched rate rule [Cds-HH_Cds-HH;HJ]
#  family: R_Addition_MultipleBond

# Reaction 13
reaction('H(13) + C2H4(18) <=> C2H5(14)', [4.620000e+08, 1.64, 1.01],
         id='gas-13')
#  Reaction index: Chemkin #14; RMG #71
#  Template reaction: R_Addition_COm
#  Flux pairs: CO(7), HCO(15); H(13), HCO(15);
#  Matched reaction 4 H + CO <=> CHO in R_Addition_COm/training
#  This reaction matched rate rule [COm;H_rad]
#  family: R_Addition_COm

# Reaction 14
reaction('H(13) + CO(7) <=> HCO(15)', [1.180000e+11, 0.0, 2.72],
         id='gas-14')
#  Reaction index: Chemkin #15; RMG #72
#  Template reaction: 1,2_Insertion_CO
#  Flux pairs: CO(7), CH3CHO(16); CH4(8), CH3CHO(16);
#  Matched reaction 3 CH4 + CO <=> C2H4O in 1,2_Insertion_CO/training
#  This reaction matched rate rule [CO;C_methane]
#  family: 1,2_Insertion_CO

# Reaction 15
reaction('CO(7) + CH4(8) <=> CH3CHO(16)', [6.560000e+04, 2.86, 86.9],
         id='gas-15')
#  Reaction index: Chemkin #16; RMG #74
#  Template reaction: R_Recombination
#  Flux pairs: HCO(15), CH3CHO(16); CH3(11), CH3CHO(16);
#  Matched reaction 71 CH3 + CHO <=> C2H4O in R_Recombination/training
#  This reaction matched rate rule [Root_N-1R->H_N-1CNOS->N_N-1COS->O_1CS->C_N-1C-inRing_Ext-2R-R_N-Sp-3R!H-2R_3R!H->O]
#  family: R_Recombination

# Reaction 16
reaction('HCO(15) + CH3(11) <=> CH3CHO(16)', [1.810000e+13, 0.0, 0.0],
         id='gas-16')
#  Reaction index: Chemkin #17; RMG #152
#  Template reaction: CO_Disproportionation
#  Flux pairs: OH(17), H2O(3); HCO(15), CO(7);
#  Estimated using template [O_rad;HCO] for rate rule [O_pri_rad;HCO]
#  Euclidian distance = 1.0
#  family: CO_Disproportionation

# Reaction 17
reaction('OH(17) + HCO(15) <=> H2O(3) + CO(7)', [1.240000e+23, -3.29, 2.355],
         id='gas-17')
#  Reaction index: Chemkin #18; RMG #155
#  Template reaction: H_Abstraction
#  Flux pairs: CH4(8), CH3(11); OH(17), H2O(3);
#  Matched reaction 188 CH4b + OH <=> CH3_p1 + H2O_p in H_Abstraction/training
#  This reaction matched rate rule [O_pri;C_methyl]
#  family: H_Abstraction

# Reaction 18
reaction('OH(17) + CH4(8) <=> H2O(3) + CH3(11)', [1.000000e+06, 2.182, 2.506],
         id='gas-18')
#  Reaction index: Chemkin #19; RMG #156
#  Template reaction: H_Abstraction
#  Flux pairs: C2H6(9), C2H5(14); OH(17), H2O(3);