units(length='cm', time='s', quantity='mol', act_energy='kcal/mol')

ideal_gas(name='gas',
          elements="H D T C Ci O Oi N Ne Ar He Si S Cl X",
          species="""n-heptane   Ar          He          Ne
                     N2          C2H4(2)     C4H8-1(3)   C4H8-2(4)
                     C4H6(7)     C6H8(9)     C3H6(24)    H2(47)
                     C6H10k(95)  C8H12(98)   C8H12(99)   C5H8h(129)
                     C5H8c(142)  C5H8g(157)  CH4(198)    C5H10(200)
                     C4H8(201)   C2H6(203)   S(344)      C3H8(777)""",
          reactions='gas-*',
          initial_state=state(temperature=300.0, pressure=OneAtm))

ideal_interface(name='surface1',
                elements="H D T C Ci O Oi N Ne Ar He Si S Cl X",
                species="""X(1)        HX(5)       C2H3X(27)   allylX(28)
                          CH3X(29)    C2H5X(30)   C4H7X(31)   C4H7X(32)
                          C4H7X(33)   C4H7X(34)   C3H5X(35)   C4H5X(56)
                          C4H5X(57)   C6H9X(65)   C6H9X(66)   C6H9X(72)
                          C6H9X(103)  C6H9X(104)  C3H5X(123)  C3H7X(175)
                          C5H7X(205)  SX(234)     SX(237)     C6H9X(358)
                          C5H7X(391)  C5H7X(436)  C5H7X(481)  SX(526)
                          C4H7X(651)  C5H7X(796)  C5H7X(797)  C5H7X(798)
                          C6H7X(941)  C6H7X(942)  C6H7X(943)  SX(1060)
                          SX(1098)    SX(1378)    SX(1379)    SX(1380)
                          SX(1381)    SX(1382)""",
                site_density=2.72e-09,
                phases="gas",
          reactions='surface1-*',
                initial_state=state(temperature=300.0, pressure=OneAtm))

#-------------------------------------------------------------------------------
# Element data
#-------------------------------------------------------------------------------

element(symbol=u'X', atomic_mass=195.083)
element(symbol=u'Ci', atomic_mass=13.003)
element(symbol=u'D', atomic_mass=2.014)
element(symbol=u'Oi', atomic_mass=18.0)
element(symbol=u'T', atomic_mass=3.016)
#-------------------------------------------------------------------------------
# Species data
#-------------------------------------------------------------------------------

species(name=u'n-heptane',
        atoms='H:16 C:7',
        thermo=(NASA([100.00, 1262.73],
                     [-2.91681405E-03,  7.69373649E-02, -3.48025563E-05,
                       1.86095180E-09,  2.01573617E-12, -2.57829342E+04,
                       3.00312148E+01]),
                NASA([1262.73, 5000.00],
                     [ 1.38377915E+01,  4.85945016E-02, -1.95474548E-05,
                       3.52837178E-09, -2.39064676E-13, -3.05141556E+04,
                      -4.48642836E+01])))

species(name=u'Ar',
        atoms='Ar:1',
        thermo=(NASA([200.00, 1000.00],
                     [ 2.50000000E+00,  0.00000000E+00,  0.00000000E+00,
                       0.00000000E+00,  0.00000000E+00, -7.45375000E+02,
                       4.37967000E+00]),
                NASA([1000.00, 6000.00],
                     [ 2.50000000E+00,  0.00000000E+00,  0.00000000E+00,
                       0.00000000E+00,  0.00000000E+00, -7.45375000E+02,
                       4.37967000E+00])))

species(name=u'He',
        atoms='He:1',
        thermo=(NASA([200.00, 1000.00],
                     [ 2.50000000E+00,  0.00000000E+00,  0.00000000E+00,
                       0.00000000E+00,  0.00000000E+00, -7.45375000E+02,
                       9.28724000E-01]),
                NASA([1000.00, 6000.00],
                     [ 2.50000000E+00,  0.00000000E+00,  0.00000000E+00,
                       0.00000000E+00,  0.00000000E+00, -7.45375000E+02,
                       9.28724000E-01])))

species(name=u'Ne',
        atoms='Ne:1',
        thermo=(NASA([200.00, 1000.00],
                     [ 2.50000000E+00,  0.00000000E+00,  0.00000000E+00,
                       0.00000000E+00,  0.00000000E+00, -7.45375000E+02,
                       3.35532000E+00]),
                NASA([1000.00, 6000.00],
                     [ 2.50000000E+00,  0.00000000E+00,  0.00000000E+00,
                       0.00000000E+00,  0.00000000E+00, -7.45375000E+02,
                       3.35532000E+00])))

species(name=u'N2',
        atoms='N:2',
        thermo=(NASA([200.00, 1000.00],
                     [ 3.53101000E+00, -1.23661000E-04, -5.02999000E-07,
                       2.43531000E-09, -1.40881000E-12, -1.04698000E+03,
                       2.96747000E+00]),
                NASA([1000.00, 6000.00],
                     [ 2.95258000E+00,  1.39690000E-03, -4.92632000E-07,
                       7.86010000E-11, -4.60755000E-15, -9.23949000E+02,
                       5.87189000E+00])))

species(name=u'C2H4(2)',
        atoms='H:4 C:2',
        thermo=(NASA([100.00, 979.36],
                     [ 3.97471606E+00, -4.75844285E-03,  4.16783770E-05,
                      -4.51392516E-08,  1.54224761E-11,  4.91540746E+03,
                       3.62430844E+00]),
                NASA([979.36, 5000.00],
                     [ 3.55660610E+00,  1.10627464E-02, -4.17019079E-06,
                       7.85586770E-10, -5.70060829E-14,  4.32046489E+03,
                       2.17719479E+00])))

species(name=u'C4H8-1(3)',
        atoms='H:8 C:4',
        thermo=(NASA([100.00, 1007.28],
                     [ 2.58772906E+00,  2.32777969E-02,  1.93412349E-05,
                      -3.55496333E-08,  1.36906009E-11, -1.91872926E+03,
                       1.45750618E+01]),
                NASA([1007.28, 5000.00],
                     [ 7.20517168E+00,  2.36361568E-02, -9.03150028E-06,
                       1.65392666E-09, -1.16019260E-13, -3.79733937E+03,
                      -1.24426257E+01])))

species(name=u'C4H8-2(4)',
        atoms='H:8 C:4',
        thermo=(NASA([100.00, 1157.79],
                     [ 2.51998327E+00,  2.76812799E-02,  9.43783469E-07,
                      -1.25009101E-08,  4.67144666E-12, -3.34374767E+03,
                       1.30195623E+01]),
                NASA([1157.79, 5000.00],
                     [ 6.04225708E+00,  2.60072350E-02, -1.04843374E-05,
                       1.90880922E-09, -1.30600505E-13, -4.86276511E+03,
                      -7.52715109E+00])))

species(name=u'C4H6(7)',
        atoms='H:6 C:4',
        thermo=(NASA([100.00, 946.05],
                     [ 2.80599310E+00,  1.02584471E-02,  6.17260255E-05,
                      -9.01642687E-08,  3.59116961E-11,  1.16584972E+04,
                       1.20621434E+01]),
                NASA([946.05, 5000.00],
                     [ 1.24693720E+01,  1.00553901E-02, -2.41206872E-06,
                       4.57077303E-10, -3.93160571E-14,  8.01077795E+03,
                      -4.36374720E+01])))

species(name=u'C6H8(9)',
        atoms='H:8 C:6',
        thermo=(NASA([100.00, 941.22],
                     [ 1.38427980E+00,  4.14411503E-02,  1.94287417E-05,
                      -6.16688700E-08,  2.86503633E-11,  1.76317461E+04,
                       1.93257509E+01]),
                NASA([941.22, 5000.00],
                     [ 1.69619680E+01,  1.57221707E-02, -4.10118367E-06,
                       6.95736344E-10, -5.26521484E-14,  1.29061672E+04,
                      -6.44097553E+01])))

species(name=u'C3H6(24)',
        atoms='H:6 C:3',
        thermo=(NASA([100.00, 983.75],
                     [ 3.31912102E+00,  8.17958674E-03,  3.34736123E-05,
                      -4.36193684E-08,  1.58213364E-11,  7.49325328E+02,
                       9.54025058E+00]),
                NASA([983.75, 5000.00],
                     [ 5.36755173E+00,  1.70743019E-02, -6.35107626E-06,
                       1.16619529E-09, -8.27620279E-14, -4.87138326E+02,
                      -4.54467529E+00])))

species(name=u'H2(47)',
        atoms='H:2',
        thermo=(NASA([100.00, 1959.08],
                     [ 3.43536412E+00,  2.12710353E-04, -2.78625043E-07,
                       3.40267167E-10, -7.76031998E-14, -1.03135984E+03,
                      -3.90841732E+00]),
                NASA([1959.08, 5000.00],
                     [ 2.78816583E+00,  5.87640942E-04,  1.59010417E-07,
                      -5.52739026E-11,  4.34310984E-15, -5.96144270E+02,
                       1.12732655E-01])))

species(name=u'C6H10k(95)',
        atoms='H:10 C:6',
        thermo=(NASA([100.00, 1036.89],
                     [ 1.50874221E+00,  4.27939676E-02,  1.00407781E-05,
                      -3.76644958E-08,  1.56320088E-11,  7.74480595E+03,
                       2.33493905E+01]),
                NASA([1036.89, 5000.00],
                     [ 1.16601041E+01,  3.10397815E-02, -1.26024374E-05,
                       2.38495409E-09, -1.70150727E-13,  4.16633351E+03,
                      -3.30972272E+01])))

species(name=u'C8H12(98)',
        atoms='H:12 C:8',
        thermo=(NASA([100.00, 1002.94],
                     [ 1.69489980E-02,  7.28189377E-02, -2.16585698E-05,
                      -2.40807783E-08,  1.44597041E-11,  1.38562447E+04,
                       3.07679077E+01]),
                NASA([1002.94, 5000.00],
                     [ 1.77276883E+01,  3.45993801E-02, -1.29781828E-05,
                       2.37500136E-09, -1.67643536E-13,  8.67334638E+03,
                      -6.28559377E+01])))

species(name=u'C8H12(99)',
        atoms='H:12 C:8',
        thermo=(NASA([100.00, 1005.34],
                     [ 1.86706594E-01,  6.87128585E-02, -1.27834364E-05,
                      -3.12867866E-08,  1.65065107E-11,  1.40386710E+04,
                       3.13641644E+01]),
                NASA([1005.34, 5000.00],
                     [ 1.70020327E+01,  3.54850644E-02, -1.34528637E-05,
                       2.47700296E-09, -1.75378433E-13,  8.95581482E+03,
                      -5.83136097E+01])))

species(name=u'C5H8h(129)',
        atoms='H:8 C:5',
        thermo=(NASA([100.00, 1945.28],
                     [ 1.54057150E+00,  4.70674891E-02, -3.00891500E-05,
                       9.08792775E-09, -1.08388618E-12,  1.04128608E+04,
                       1.86285770E+01]),
                NASA([1945.28, 5000.00],
                     [ 1.57976301E+01,  1.77513582E-02, -7.48362302E-06,
                       1.34081097E-09, -8.82587923E-14,  4.86605187E+03,
                      -5.96402586E+01])))

species(name=u'C5H8c(142)',
        atoms='H:8 C:5',
        thermo=(NASA([100.00, 1004.86],
                     [ 1.98273955E+00,  3.49998332E-02,  6.98515281E-06,
                      -3.05031334E-08,  1.32246652E-11,  6.96521034E+03,
                       1.60818191E+01]),
                NASA([1004.86, 5000.00],
                     [ 1.01246420E+01,  2.42323877E-02, -9.24886971E-06,
                       1.70115950E-09, -1.20059732E-13,  4.23624320E+03,
                      -2.86745770E+01])))

species(name=u'C5H8g(157)',
        atoms='H:8 C:5',
        thermo=(NASA([100.00, 1049.25],
                     [ 2.01062155E+00,  3.15407187E-02,  2.07789480E-05,
                      -4.44088985E-08,  1.72419112E-11,  7.01383967E+03,
                       1.65768346E+01]),
                NASA([1049.25, 5000.00],
                     [ 1.14809937E+01,  2.45641673E-02, -1.08867259E-05,
                       2.16707025E-09, -1.59145781E-13,  3.42314914E+03,
                      -3.72078866E+01])))

species(name=u'CH4(198)',
        atoms='H:4 C:1',
        thermo=(NASA([100.00, 1084.12],
                     [ 4.20541524E+00, -5.35557362E-03,  2.51123265E-05,
                      -2.13762843E-08,  5.97523937E-12, -1.01619433E+04,
                      -9.21279283E-01]),
                NASA([1084.12, 5000.00],
                     [ 9.08265721E-01,  1.14540858E-02, -4.57173828E-06,
                       8.29191671E-10, -5.66314895E-14, -9.71997444E+03,
                       1.39930944E+01])))

species(name=u'C5H10(200)',
        atoms='H:10 C:5',
        thermo=(NASA([100.00, 1883.68],
                     [ 2.29195787E+00,  4.21076449E-02, -1.49304794E-05,
                      -1.22102583E-10,  5.99441346E-13, -4.98138150E+03,
                       1.67887076E+01]),
                NASA([1883.68, 5000.00],
                     [ 1.47438472E+01,  2.72460315E-02, -1.23172689E-05,
                       2.21660273E-09, -1.44084857E-13, -1.17269008E+04,
                      -5.66226025E+01])))

species(name=u'C4H8(201)',
        atoms='H:8 C:4',
        thermo=(NASA([100.00, 1061.33],
                     [ 2.52504770E+00,  2.64752782E-02,  7.08359238E-06,
                      -2.07731462E-08,  8.00430055E-12, -4.02607130E+03,
                       1.28857274E+01]),
                NASA([1061.33, 5000.00],
                     [ 6.48672669E+00,  2.49943921E-02, -9.83283171E-06,
                       1.79343299E-09, -1.24008235E-13, -5.62452310E+03,
                      -1.00316397E+01])))

species(name=u'C2H6(203)',
        atoms='H:6 C:2',
        thermo=(NASA([100.00, 1012.42],
                     [ 3.72239291E+00,  1.65083841E-03,  3.44175530E-05,
                      -3.76858229E-08,  1.24450657E-11, -1.15575901E+04,
                       4.68247999E+00]),
                NASA([1012.42, 5000.00],
                     [ 2.82848257E+00,  1.73040568E-02, -6.73334245E-06,
                       1.23742024E-09, -8.65676410E-14, -1.19978080E+04,
                       5.93811707E+00])))

species(name=u'S(344)',
        atoms='H:14 C:10',
        thermo=(NASA([100.00, 988.70],
                     [-1.28102885E+00,  9.73401935E-02, -3.96908570E-05,
                      -2.28883979E-08,  1.70599250E-11,  2.01333918E+04,
                       3.80613736E+01]),
                NASA([988.70, 5000.00],
                     [ 2.35618068E+01,  3.86218834E-02, -1.40063814E-05,
                       2.54246809E-09, -1.80004061E-13,  1.31784885E+04,
                      -9.18377566E+01])))

species(name=u'C3H8(777)',
        atoms='H:8 C:3',
        thermo=(NASA([100.00, 989.99],
                     [ 3.06336167E+00,  1.29214561E-02,  3.47032808E-05,
                      -4.70946154E-08,  1.71384141E-11, -1.43905789E+04,
                       1.07835592E+01]),
                NASA([989.99, 5000.00],
                     [ 5.60440043E+00,  2.19528785E-02, -8.22080610E-06,
                       1.50103993E-09, -1.05635358E-13, -1.58394038E+04,
                      -6.22623300E+00])))

species(name=u'X(1)',
        atoms='X:1',
        thermo=(NASA([100.00, 1554.80],
                     [ 7.10139498E-03, -4.25619522E-05,  8.98533016E-08,
                      -7.80193649E-11,  2.32465471E-14, -8.76101712E-01,
                      -3.11211229E-02]),
                NASA([1554.80, 5000.00],
                     [ 1.60299900E-01, -2.52235409E-04,  1.14181275E-07,
                      -1.21471653E-11,  3.85790025E-16, -7.08100885E+01,
                      -9.09527530E-01])))

species(name=u'HX(5)',
        atoms='H:1 X:1',
        thermo=(NASA([100.00, 952.91],
                     [-3.80965452E-01,  5.47228709E-03,  2.60912778E-06,
                      -9.64961980E-09,  4.63946753E-12,  7.98421583E+03,
                       1.01725550E+00]),
                NASA([952.91, 5000.00],
                     [ 2.80339655E+00, -5.41047017E-04,  4.99507978E-07,
                      -7.54963647E-11,  3.06772366E-15,  7.04346641E+03,
                      -1.59436787E+01])))

species(name=u'C2H3X(27)',
        atoms='H:3 C:2 X:1',
        thermo=(NASA([100.00, 928.62],
                     [ 3.83091018E+00, -8.76381562E-03,  6.97956896E-05,
                      -8.67969174E-08,  3.33218121E-11,  4.50142039E+03,
                      -1.81151753E+01]),
                NASA([928.62, 5000.00],
                     [ 8.78054562E+00,  1.92497720E-03,  8.25825014E-07,
                      -1.63749818E-10,  5.71728318E-15,  2.20201726E+03,
                      -4.90588618E+01])))

species(name=u'allylX(28)',
        atoms='H:5 C:3 X:1',
        thermo=(NASA([100.00, 937.34],
                     [ 3.44148119E+00, -3.47700003E-03,  8.25933681E-05,
                      -1.05556823E-07,  4.04445066E-11,  9.59582257E+02,
                      -6.88846669E+00]),
                NASA([937.34, 5000.00],
                     [ 9.98148902E+00,  8.92268754E-03, -1.75442587E-06,
                       3.12285771E-10, -2.84156572E-14, -2.03721539E+03,
                      -4.74626902E+01])))

species(name=u'CH3X(29)',
        atoms='H:3 C:1 X:1',
        thermo=(NASA([100.00, 848.30],
                     [-1.21090496E+00,  2.92390681E-02, -4.49011079E-05,
                       3.86009808E-08, -1.30361041E-11, -3.21909625E+03,
                       6.80939750E+00]),
                NASA([848.30, 5000.00],
                     [ 1.62290877E+00,  1.12987268E-02, -5.08316908E-06,
                       9.46833581E-10, -6.42885536E-14, -3.53516115E+03,
                      -5.42501059E+00])))

species(name=u'C2H5X(30)',
        atoms='H:5 C:2 X:1',
        thermo=(NASA([100.00, 803.81],
                     [-1.64625424E+00,  3.89626488E-02, -4.31128887E-05,
                       2.97076939E-08, -8.80222915E-12, -7.20277127E+03,
                       9.27323637E+00]),
                NASA([803.81, 5000.00],
                     [ 1.97598112E+00,  2.09382766E-02, -9.47916922E-06,
                       1.81392948E-09, -1.27206354E-13, -7.78512005E+03,
                      -7.41107956E+00])))

species(name=u'C4H7X(31)',
        atoms='H:7 C:4 X:1',
        thermo=(NASA([100.00, 971.02],
                     [ 2.64365035E+00,  1.79007589E-02,  4.24443189E-05,
                      -6.44028479E-08,  2.49593993E-11, -2.99712717E+03,
                      -6.69991651E+00]),
                NASA([971.02, 5000.00],
                     [ 9.25871667E+00,  2.04064152E-02, -7.39143670E-06,
                       1.37021231E-09, -9.94133357E-14, -5.68461130E+03,
                      -4.56426102E+01])))

species(name=u'C4H7X(32)',
        atoms='H:7 C:4 X:1',
        thermo=(NASA([100.00, 986.67],
                     [ 2.45798205E+00,  2.47217336E-02,  2.01285964E-05,
                      -4.02735564E-08,  1.62485845E-11,  5.40505987E+03,
                      -5.12991781E+00]),
                NASA([986.67, 5000.00],
                     [ 8.87898065E+00,  2.09043993E-02, -7.83851223E-06,
                       1.44076477E-09, -1.02346878E-13,  3.05670376E+03,
                      -4.15007572E+01])))

species(name=u'C4H7X(33)',
        atoms='H:7 C:4 X:1',
        thermo=(NASA([100.00, 965.06],
                     [ 2.56877619E+00,  1.97500674E-02,  3.72961301E-05,
                      -6.04017092E-08,  2.39989018E-11, -3.26854804E+03,
                      -8.56564322E+00]),
                NASA([965.06, 5000.00],
                     [ 9.89778724E+00,  1.86142959E-02, -6.38884453E-06,
                       1.17309353E-09, -8.55406646E-14, -6.04483924E+03,
                      -5.07182348E+01])))

species(name=u'C4H7X(34)',
        atoms='H:7 C:4 X:1',
        thermo=(NASA([100.00, 949.35],
                     [ 2.54254539E+00,  1.77389010E-02,  4.93877612E-05,
                      -7.72878178E-08,  3.10660019E-11, -2.04291473E+03,
                      -8.46783968E+00]),
                NASA([949.35, 5000.00],
                     [ 1.15220223E+01,  1.60005944E-02, -4.89823595E-06,
                       8.83972924E-10, -6.63710570E-14, -5.37444707E+03,
                      -5.98888028E+01])))

species(name=u'C3H5X(35)',
        atoms='H:5 C:3 X:1',
        thermo=(NASA([100.00, 939.06],
                     [ 3.23683359E+00,  3.73132320E-03,  6.01028900E-05,
                      -8.16245569E-08,  3.18536011E-11,  6.88178791E+02,
                      -1.35295467E+01]),
                NASA([939.06, 5000.00],
                     [ 9.70183185E+00,  9.48309646E-03, -2.25953763E-06,
                       3.98431327E-10, -3.27118882E-14, -1.99385014E+03,
                      -5.21282869E+01])))

species(name=u'C4H5X(56)',
        atoms='H:5 C:4 X:1',
        thermo=(NASA([100.00, 936.52],
                     [ 2.68471723E+00,  1.36244496E-02,  5.32591849E-05,
                      -8.32912448E-08,  3.41499374E-11,  6.59465057E+03,
                      -1.06510487E+01]),
                NASA([936.52, 5000.00],
                     [ 1.29012266E+01,  8.96921861E-03, -1.71920076E-06,
                       2.89744517E-10, -2.58686364E-14,  2.97161163E+03,
                      -6.83963397E+01])))

species(name=u'C4H5X(57)',
        atoms='H:5 C:4 X:1',
        thermo=(NASA([100.00, 928.63],
                     [ 2.64232495E+00,  8.31109593E-03,  8.12146261E-05,
                      -1.21398701E-07,  4.98630759E-11,  1.17775593E+04,
                      -1.03932963E+01]),
                NASA([928.63, 5000.00],
                     [ 1.69490474E+01,  2.00818812E-03,  2.03468841E-06,
                      -4.02657023E-10,  1.85400094E-14,  6.73506496E+03,
                      -9.11990785E+01])))

species(name=u'C6H9X(65)',
        atoms='H:9 C:6 X:1',
        thermo=(NASA([100.00, 999.55],
                     [ 1.67673103E+00,  3.46229627E-02,  3.95069460E-05,
                      -7.18132776E-08,  2.83897957E-11,  6.99952786E+03,
                       1.40551907E+00]),
                NASA([999.55, 5000.00],
                     [ 1.32935266E+01,  2.82673556E-02, -1.11810126E-05,
                       2.16230262E-09, -1.59014467E-13,  2.67238898E+03,
                      -6.46621998E+01])))

species(name=u'C6H9X(66)',
        atoms='H:9 C:6 X:1',
        thermo=(NASA([100.00, 959.61],
                     [ 9.97316280E-01,  5.45668000E-02, -1.20062319E-05,
                      -2.57197904E-08,  1.47243152E-11,  1.38019192E+04,
                       4.10405037E+00]),
                NASA([959.61, 5000.00],
                     [ 1.47073597E+01,  2.48050721E-02, -8.29407345E-06,
                       1.44239761E-09, -1.00346470E-13,  9.90971880E+03,
                      -6.80438434E+01])))

species(name=u'C6H9X(72)',
        atoms='H:9 C:6 X:1',
        thermo=(NASA([100.00, 995.64],
                     [ 1.00158150E+00,  5.37831764E-02, -1.05077719E-05,
                      -2.52898569E-08,  1.36194364E-11,  1.32794260E+04,
                       4.73928304E+00]),
                NASA([995.64, 5000.00],
                     [ 1.48279675E+01,  2.56881420E-02, -9.53965888E-06,
                       1.75504791E-09, -1.24935257E-13,  9.16550109E+03,
                      -6.87379050E+01])))

species(name=u'C6H9X(103)',
        atoms='H:9 C:6 X:1',
        thermo=(NASA([100.00, 1007.64],
                     [ 1.27248302E+00,  4.84011712E-02, -1.75453614E-06,
                      -2.97801391E-08,  1.41252411E-11,  6.92686100E+03,
                       3.98937307E-01]),
                NASA([1007.64, 5000.00],
                     [ 1.28615791E+01,  2.84953040E-02, -1.09739062E-05,
                       2.02433889E-09, -1.43084350E-13,  3.26636744E+03,
                      -6.21745613E+01])))

species(name=u'C6H9X(104)',
        atoms='H:9 C:6 X:1',
        thermo=(NASA([100.00, 980.12],
                     [ 1.45601280E+00,  3.81349851E-02,  3.61687193E-05,
                      -7.42191955E-08,  3.07944994E-11,  7.51105877E+03,
                       9.50783533E-01]),
                NASA([980.12, 5000.00],
                     [ 1.55813957E+01,  2.40133265E-02, -8.83195758E-06,
                       1.69883903E-09, -1.26943264E-13,  2.65150890E+03,
                      -7.75775604E+01])))

species(name=u'C3H5X(123)',
        atoms='H:5 C:3 X:1',
        thermo=(NASA([100.00, 946.02],
                     [ 3.27693369E+00,  3.84253259E-03,  5.69854034E-05,
                      -7.61339325E-08,  2.92928923E-11, -1.09927060E+03,
                      -1.34283913E+01]),
                NASA([946.02, 5000.00],
                     [ 8.81692983E+00,  1.11131640E-02, -3.21294654E-06,
                       5.86623487E-10, -4.55861620E-14, -3.52098462E+03,
                      -4.71077607E+01])))

species(name=u'C3H7X(175)',
        atoms='H:7 C:3 X:1',
        thermo=(NASA([100.00, 962.23],
                     [ 2.98507617E+00,  1.18443143E-02,  4.44611757E-05,
                      -6.24987896E-08,  2.38543137E-11, -7.19778485E+03,
                      -8.29655001E+00]),
                NASA([962.23, 5000.00],
                     [ 7.84456291E+00,  1.80195209E-02, -6.28241367E-06,
                       1.14556333E-09, -8.27268880E-14, -9.35404009E+03,
                      -3.78986463E+01])))

species(name=u'C5H7X(205)',
        atoms='H:7 C:5 X:1',
        thermo=(NASA([100.00, 955.26],
                     [ 2.14807862E+00,  2.30471639E-02,  5.52785985E-05,
                      -8.99888281E-08,  3.64764303E-11,  7.23878916E+03,
                      -3.16802051E-01]),
                NASA([955.26, 5000.00],
                     [ 1.41485498E+01,  1.72239138E-02, -5.33809619E-06,
                       9.99788941E-10, -7.72182082E-14,  2.91903326E+03,
                      -6.82727003E+01])))

species(name=u'SX(234)',
        atoms='H:11 C:8 X:1',
        thermo=(NASA([100.00, 959.80],
                     [-3.25327544E-02,  7.10258558E-02, -7.21009037E-06,
                      -4.64203317E-08,  2.44519987E-11,  7.83501297E+03,
                       6.86481419E+00]),
                NASA([959.80, 5000.00],
                     [ 1.99070364E+01,  3.04352974E-02, -1.02068607E-05,
                       1.80443139E-09, -1.28066149E-13,  2.04943805E+03,
                      -9.87138419E+01])))

species(name=u'SX(237)',
        atoms='H:11 C:8 X:1',
        thermo=(NASA([100.00, 962.24],
                     [-2.35925141E-02,  6.79468626E-02,  5.44319596E-06,
                      -6.22174223E-08,  3.04428701E-11,  1.36224701E+04,
                       7.63931649E+00]),
                NASA([962.24, 5000.00],
                     [ 2.16692086E+01,  2.75469289E-02, -9.17276980E-06,
                       1.66777351E-09, -1.22183122E-13,  7.14330823E+03,
                      -1.08155159E+02])))

species(name=u'C6H9X(358)',
        atoms='H:9 C:6 X:1',
        thermo=(NASA([100.00, 960.31],
                     [ 1.65315479E+00,  3.22614868E-02,  5.56530615E-05,
                      -9.52638055E-08,  3.87091398E-11,  7.43306705E+03,
                       6.06729094E+00]),
                NASA([960.31, 5000.00],
                     [ 1.49560548E+01,  2.50865234E-02, -8.48414501E-06,
                       1.56734891E-09, -1.16111683E-13,  2.65394610E+03,
                      -6.91530921E+01])))

species(name=u'C5H7X(391)',
        atoms='H:7 C:5 X:1',
        thermo=(NASA([100.00, 979.29],
                     [ 2.44836343E+00,  1.33283922E-02,  8.29667719E-05,
                      -1.14970554E-07,  4.36284890E-11,  3.25558644E+03,
                       4.74522881E-01]),
                NASA([979.29, 5000.00],
                     [ 1.37093236E+01,  1.99211141E-02, -7.68312705E-06,
                       1.57735996E-09, -1.23702825E-13, -1.47164425E+03,
                      -6.64924654E+01])))

species(name=u'C5H7X(436)',
        atoms='H:7 C:5 X:1',
        thermo=(NASA([100.00, 1072.90],
                     [ 1.60352058E+00,  4.29661179E-02, -1.18282508E-05,
                      -1.39642914E-08,  7.60991849E-12,  9.05861710E+03,
                      -4.14091967E+00]),
                NASA([1072.90, 5000.00],
                     [ 1.29386680E+01,  2.08275229E-02, -9.00799901E-06,
                       1.76328660E-09, -1.27910987E-13,  5.46823437E+03,
                      -6.50210625E+01])))

species(name=u'C5H7X(481)',
        atoms='H:7 C:5 X:1',
        thermo=(NASA([100.00, 977.51],
                     [ 1.91588053E+00,  3.49356477E-02,  1.03875133E-05,
                      -3.80683765E-08,  1.69607473E-11,  1.17497671E+04,
                      -4.71234184E+00]),
                NASA([977.51, 5000.00],
                     [ 1.18073149E+01,  2.05122433E-02, -7.45740030E-06,
                       1.36680387E-09, -9.78638928E-14,  8.57126478E+03,
                      -5.85744979E+01])))

species(name=u'SX(526)',
        atoms='H:11 C:7 X:1',
        thermo=(NASA([100.00, 1137.16],
                     [ 4.79986709E-01,  6.69862578E-02, -3.19419368E-05,
                      -4.05413413E-10,  3.37350330E-12,  1.08824446E+04,
                       7.46897164E+00]),
                NASA([1137.16, 5000.00],
                     [ 1.36937106E+01,  3.73678274E-02, -1.51143260E-05,
                       2.76841706E-09, -1.90847152E-13,  6.78702572E+03,
                      -6.27715199E+01])))

species(name=u'C4H7X(651)',
        atoms='H:7 C:4 X:1',
        thermo=(NASA([100.00, 947.75],
                     [ 2.86440387E+00,  8.12954614E-03,  7.59606536E-05,
                      -1.03618267E-07,  4.00694538E-11, -2.97828368E+03,
                      -2.40038485E+00]),
                NASA([947.75, 5000.00],
                     [ 1.10489656E+01,  1.63914163E-02, -4.86280875E-06,
                       8.89632629E-10, -6.85128174E-14, -6.45209988E+03,
                      -5.15890409E+01])))

species(name=u'C5H7X(796)',
        atoms='H:7 C:5 X:1',
        thermo=(NASA([100.00, 951.44],
                     [ 1.91708763E+00,  3.34363627E-02,  2.05629412E-05,
                      -5.16620647E-08,  2.27003145E-11,  9.44197868E+02,
                      -7.76831119E+00]),
                NASA([951.44, 5000.00],
                     [ 1.24634291E+01,  1.98022959E-02, -6.34957382E-06,
                       1.11415841E-09, -7.96792959E-14, -2.45237725E+03,
                      -6.54266576E+01])))

species(name=u'C5H7X(797)',
        atoms='H:7 C:5 X:1',
        thermo=(NASA([100.00, 956.33],
                     [ 1.92522123E+00,  3.03679546E-02,  3.31736884E-05,
                      -6.73950025E-08,  2.86593452E-11,  6.73168908E+03,