units(length='cm', time='s', quantity='mol', act_energy='kcal/mol')

ideal_gas(name='gas',
          elements="H D T C Ci O Oi N Ne Ar He Si S Cl X",
          species="""n-heptane   Ar          He          Ne
                     N2          C2H4(2)     C4H8-1(3)   C4H8-2(4)
                     C4H6(7)     C6H8(119)   C8H10(123)  S(205)
                     S(216)      S(221)      S(243)      S(347)
                     C8H11(684)  S(723)      S(748)      S(764)
                     S(766)      S(772)      S(1234)     S(1834)
                     S(3006)     S(3008)     S(6390)     S(6481)
                     S(6694)     S(6729)     S(7855)     S(9002)
                     S(9621)     S(10078)    S(10081)    S(28970)
                     S(38617)    S(39282)""",
          reactions='gas-*',
          initial_state=state(temperature=300.0, pressure=OneAtm))

ideal_interface(name='surface1',
                elements="H D T C Ci O Oi N Ne Ar He Si S Cl X",
                species="""X(1)        HX(5)       C2H3X(37)   C2H5X(40)
                          C4H5X(80)   C4H5X(81)   C6H7X(143)  SX(408)
                          SX(409)     SX(411)     SX(412)     SX(413)
                          SX(414)     SX(415)     SX(717)     SX(6562)
                          SX(6632)    SX(7984)    SX(9134)    SX(9614)
                          SX(26804)   SX(26808)   SX(35913)   SX(35917)""",
                site_density=2.72e-09,
                phases="gas",
          reactions='surface1-*',
                initial_state=state(temperature=300.0, pressure=OneAtm))

#-------------------------------------------------------------------------------
# Element data
#-------------------------------------------------------------------------------

element(symbol=u'X', atomic_mass=195.083)
element(symbol=u'Ci', atomic_mass=13.003)
element(symbol=u'D', atomic_mass=2.014)
element(symbol=u'Oi', atomic_mass=18.0)
element(symbol=u'T', atomic_mass=3.016)
#-------------------------------------------------------------------------------
# Species data
#-------------------------------------------------------------------------------

species(name=u'n-heptane',
        atoms='H:16 C:7',
        thermo=(NASA([100.00, 1262.73],
                     [-2.91681405E-03,  7.69373649E-02, -3.48025563E-05,
                       1.86095180E-09,  2.01573617E-12, -2.57829342E+04,
                       3.00312148E+01]),
                NASA([1262.73, 5000.00],
                     [ 1.38377915E+01,  4.85945016E-02, -1.95474548E-05,
                       3.52837178E-09, -2.39064676E-13, -3.05141556E+04,
                      -4.48642836E+01])))

species(name=u'Ar',
        atoms='Ar:1',
        thermo=(NASA([200.00, 1000.00],
                     [ 2.50000000E+00,  0.00000000E+00,  0.00000000E+00,
                       0.00000000E+00,  0.00000000E+00, -7.45375000E+02,
                       4.37967000E+00]),
                NASA([1000.00, 6000.00],
                     [ 2.50000000E+00,  0.00000000E+00,  0.00000000E+00,
                       0.00000000E+00,  0.00000000E+00, -7.45375000E+02,
                       4.37967000E+00])))

species(name=u'He',
        atoms='He:1',
        thermo=(NASA([200.00, 1000.00],
                     [ 2.50000000E+00,  0.00000000E+00,  0.00000000E+00,
                       0.00000000E+00,  0.00000000E+00, -7.45375000E+02,
                       9.28724000E-01]),
                NASA([1000.00, 6000.00],
                     [ 2.50000000E+00,  0.00000000E+00,  0.00000000E+00,
                       0.00000000E+00,  0.00000000E+00, -7.45375000E+02,
                       9.28724000E-01])))

species(name=u'Ne',
        atoms='Ne:1',
        thermo=(NASA([200.00, 1000.00],
                     [ 2.50000000E+00,  0.00000000E+00,  0.00000000E+00,
                       0.00000000E+00,  0.00000000E+00, -7.45375000E+02,
                       3.35532000E+00]),
                NASA([1000.00, 6000.00],
                     [ 2.50000000E+00,  0.00000000E+00,  0.00000000E+00,
                       0.00000000E+00,  0.00000000E+00, -7.45375000E+02,
                       3.35532000E+00])))

species(name=u'N2',
        atoms='N:2',
        thermo=(NASA([200.00, 1000.00],
                     [ 3.53101000E+00, -1.23661000E-04, -5.02999000E-07,
                       2.43531000E-09, -1.40881000E-12, -1.04698000E+03,
                       2.96747000E+00]),
                NASA([1000.00, 6000.00],
                     [ 2.95258000E+00,  1.39690000E-03, -4.92632000E-07,
                       7.86010000E-11, -4.60755000E-15, -9.23949000E+02,
                       5.87189000E+00])))

species(name=u'C2H4(2)',
        atoms='H:4 C:2',
        thermo=(NASA([100.00, 979.36],
                     [ 3.97471606E+00, -4.75844285E-03,  4.16783770E-05,
                      -4.51392516E-08,  1.54224761E-11,  4.91540746E+03,
                       3.62430844E+00]),
                NASA([979.36, 5000.00],
                     [ 3.55660610E+00,  1.10627464E-02, -4.17019079E-06,
                       7.85586770E-10, -5.70060829E-14,  4.32046489E+03,
                       2.17719479E+00])))

species(name=u'C4H8-1(3)',
        atoms='H:8 C:4',
        thermo=(NASA([100.00, 1007.28],
                     [ 2.58772906E+00,  2.32777969E-02,  1.93412349E-05,
                      -3.55496333E-08,  1.36906009E-11, -1.91872926E+03,
                       1.45750618E+01]),
                NASA([1007.28, 5000.00],
                     [ 7.20517168E+00,  2.36361568E-02, -9.03150028E-06,
                       1.65392666E-09, -1.16019260E-13, -3.79733937E+03,
                      -1.24426257E+01])))

species(name=u'C4H8-2(4)',
        atoms='H:8 C:4',
        thermo=(NASA([100.00, 1157.79],
                     [ 2.51998327E+00,  2.76812799E-02,  9.43783469E-07,
                      -1.25009101E-08,  4.67144666E-12, -3.34374767E+03,
                       1.30195623E+01]),
                NASA([1157.79, 5000.00],
                     [ 6.04225708E+00,  2.60072350E-02, -1.04843374E-05,
                       1.90880922E-09, -1.30600505E-13, -4.86276511E+03,
                      -7.52715109E+00])))

species(name=u'C4H6(7)',
        atoms='H:6 C:4',
        thermo=(NASA([100.00, 946.05],
                     [ 2.80599310E+00,  1.02584471E-02,  6.17260255E-05,
                      -9.01642687E-08,  3.59116961E-11,  1.16584972E+04,
                       1.20621434E+01]),
                NASA([946.05, 5000.00],
                     [ 1.24693720E+01,  1.00553901E-02, -2.41206872E-06,
                       4.57077303E-10, -3.93160571E-14,  8.01077795E+03,
                      -4.36374720E+01])))

species(name=u'C6H8(119)',
        atoms='H:8 C:6',
        thermo=(NASA([100.00, 972.94],
                     [ 1.82686070E+00,  3.47046353E-02,  2.41070171E-05,
                      -5.44847920E-08,  2.29388832E-11,  1.99100661E+04,
                       1.81393315E+01]),
                NASA([972.94, 5000.00],
                     [ 1.21686202E+01,  2.40472785E-02, -8.58151834E-06,
                       1.57034031E-09, -1.12795334E-13,  1.63897115E+04,
                      -3.92195169E+01])))

species(name=u'C8H10(123)',
        atoms='H:10 C:8',
        thermo=(NASA([100.00, 1006.91],
                     [ 9.59099136E-01,  5.26052795E-02,  1.05118295E-05,
                      -4.60808495E-08,  1.99632153E-11,  2.84660811E+04,
                       2.42924801E+01]),
                NASA([1006.91, 5000.00],
                     [ 1.34171277E+01,  3.60526403E-02, -1.38971709E-05,
                       2.56761905E-09, -1.81631637E-13,  2.42875578E+04,
                      -4.41873377E+01])))

species(name=u'S(205)',
        atoms='H:16 C:12',
        thermo=(NASA([100.00, 980.77],
                     [-2.21845665E+00,  1.15202302E-01, -4.46058253E-05,
                      -2.89292454E-08,  2.08193354E-11,  3.97133228E+04,
                       4.48687920E+01]),
                NASA([980.77, 5000.00],
                     [ 2.59409200E+01,  4.89148103E-02, -1.74910345E-05,
                       3.12129948E-09, -2.18247198E-13,  3.18543069E+04,
                      -1.02343316E+02])))

species(name=u'S(216)',
        atoms='H:16 C:12',
        thermo=(NASA([100.00, 989.29],
                     [-1.49871027E+00,  8.97231513E-02,  3.13728211E-05,
                      -1.05849951E-07,  4.65472901E-11,  2.08342656E+04,
                       3.86324941E+01]),
                NASA([989.29, 5000.00],
                     [ 2.71231573E+01,  4.82447418E-02, -1.83146882E-05,
                       3.49879125E-09, -2.57494969E-13,  1.15378770E+04,
                      -1.17506583E+02])))

species(name=u'S(221)',
        atoms='H:16 C:12',
        thermo=(NASA([100.00, 1013.48],
                     [-1.54567457E+00,  9.23107697E-02,  1.97368429E-05,
                      -8.95582643E-08,  3.93110090E-11,  3.61504366E+04,
                       4.15914174E+01]),
                NASA([1013.48, 5000.00],
                     [ 2.63807306E+01,  5.08761317E-02, -2.07442171E-05,
                       4.03889489E-09, -2.96694823E-13,  2.69572874E+04,
                      -1.10939315E+02])))

species(name=u'S(243)',
        atoms='H:16 C:12',
        thermo=(NASA([100.00, 970.33],
                     [-1.59373365E+00,  9.26236289E-02,  2.50514597E-05,
                      -1.03151704E-07,  4.71947534E-11,  2.15739873E+04,
                       3.47412381E+01]),
                NASA([970.33, 5000.00],
                     [ 2.75663972E+01,  4.57826543E-02, -1.59517276E-05,
                       2.93945474E-09, -2.14444997E-13,  1.24611076E+04,
                      -1.22858677E+02])))

species(name=u'S(347)',
        atoms='H:15 C:12',
        thermo=(NASA([100.00, 994.96],
                     [-9.10525753E-01,  7.23065908E-02,  7.86529115E-05,
                      -1.50118451E-07,  6.04728055E-11,  3.34535297E+04,
                       3.72742060E+01]),
                NASA([994.96, 5000.00],
                     [ 2.59409054E+01,  5.12026508E-02, -2.04595453E-05,
                       4.01923029E-09, -2.99921063E-13,  2.38116792E+04,
                      -1.13734786E+02])))

species(name=u'C8H11(684)',
        atoms='H:11 C:8',
        thermo=(NASA([100.00, 956.07],
                     [-1.09891059E-02,  7.24055483E-02, -1.79539071E-05,
                      -3.40698735E-08,  2.01060051E-11,  2.28381705E+04,
                       2.77858466E+01]),
                NASA([956.07, 5000.00],
                     [ 1.94580865E+01,  2.89872242E-02, -9.50968002E-06,
                       1.65368217E-09, -1.16131753E-13,  1.73770137E+04,
                      -7.43579100E+01])))

species(name=u'S(723)',
        atoms='H:16 C:12',
        thermo=(NASA([100.00, 988.31],
                     [-2.50457912E+00,  1.21673388E-01, -5.94953472E-05,
                      -1.61494724E-08,  1.67570519E-11,  4.37457106E+04,
                       4.66980659E+01]),
                NASA([988.31, 5000.00],
                     [ 2.75357722E+01,  4.68691366E-02, -1.69595112E-05,
                       3.04964075E-09, -2.14074429E-13,  3.55233195E+04,
                      -1.09433919E+02])))

species(name=u'S(748)',
        atoms='H:18 C:14',
        thermo=(NASA([100.00, 971.82],
                     [-3.68195602E+00,  1.43770916E-01, -7.12631321E-05,
                      -2.09268700E-08,  2.15763987E-11,  4.58078673E+04,
                       5.29376472E+01]),
                NASA([971.82, 5000.00],
                     [ 3.25215927E+01,  5.20192401E-02, -1.80271576E-05,
                       3.18287554E-09, -2.22563878E-13,  3.60671783E+04,
                      -1.34600770E+02])))

species(name=u'S(764)',
        atoms='H:18 C:14',
        thermo=(NASA([100.00, 982.88],
                     [-2.97114598E+00,  1.18403033E-01,  4.29807506E-06,
                      -9.72640059E-08,  4.70359899E-11,  2.69291906E+04,
                       4.53467249E+01]),
                NASA([982.88, 5000.00],
                     [ 3.37215723E+01,  5.13174993E-02, -1.88319326E-05,
                       3.55580277E-09, -2.61426544E-13,  1.57437712E+04,
                      -1.51249306E+02])))

species(name=u'S(766)',
        atoms='H:18 C:14',
        thermo=(NASA([100.00, 1003.89],
                     [-2.36424491E+00,  1.07592229E-01,  1.79153803E-05,
                      -9.76689630E-08,  4.36883942E-11,  2.93901882E+04,
                       4.47779829E+01]),
                NASA([1003.89, 5000.00],
                     [ 2.83875161E+01,  6.02250847E-02, -2.36167000E-05,
                       4.49298243E-09, -3.26083511E-13,  1.94284352E+04,
                      -1.22564835E+02])))

species(name=u'S(772)',
        atoms='H:18 C:14',
        thermo=(NASA([100.00, 982.88],
                     [-2.97114598E+00,  1.18403033E-01,  4.29807506E-06,
                      -9.72640059E-08,  4.70359899E-11,  2.69291906E+04,
                       4.53467249E+01]),
                NASA([982.88, 5000.00],
                     [ 3.37215723E+01,  5.13174993E-02, -1.88319326E-05,
                       3.55580277E-09, -2.61426544E-13,  1.57437712E+04,
                      -1.51249306E+02])))

species(name=u'S(1234)',
        atoms='H:26 C:20',
        thermo=(NASA([100.00, 1003.81],
                     [-6.42578336E+00,  1.88282235E-01, -5.14708090E-05,
                      -7.12476004E-08,  4.12060612E-11,  4.91941418E+04,
                       7.22586620E+01]),
                NASA([1003.81, 5000.00],
                     [ 4.22369306E+01,  8.49623980E-02, -3.24514946E-05,
                       6.02635546E-09, -4.30080755E-13,  3.48603144E+04,
                      -1.85430227E+02])))

species(name=u'S(1834)',
        atoms='H:26 C:20',
        thermo=(NASA([100.00, 1003.08],
                     [-5.68811713E+00,  1.62585367E-01,  2.52976230E-05,
                      -1.49230231E-07,  6.74025826E-11,  3.01381915E+04,
                       6.47282320E+01]),
                NASA([1003.08, 5000.00],
                     [ 4.33607486E+01,  8.43927646E-02, -3.33335108E-05,
                       6.41770871E-09, -4.70482855E-13,  1.43919666E+04,
                      -2.01495540E+02])))

species(name=u'S(3006)',
        atoms='H:18 C:14',
        thermo=(NASA([100.00, 1030.58],
                     [-2.12257101E+00,  1.01742439E-01,  3.25378450E-05,
                      -1.05622433E-07,  4.39697995E-11,  2.74365000E+04,
                       4.25936761E+01]),
                NASA([1030.58, 5000.00],
                     [ 2.64166790E+01,  6.72299172E-02, -2.82206047E-05,
                       5.47946716E-09, -3.98364541E-13,  1.75044697E+04,
                      -1.15598673E+02])))

species(name=u'S(3008)',
        atoms='H:18 C:14',
        thermo=(NASA([100.00, 1025.58],
                     [-2.06802405E+00,  9.91730729E-02,  4.18353795E-05,
                      -1.16201193E-07,  4.78525703E-11,  2.78185672E+04,
                       4.29126444E+01]),
                NASA([1025.58, 5000.00],
                     [ 2.68512196E+01,  6.66265861E-02, -2.79288129E-05,
                       5.44120699E-09, -3.97137939E-13,  1.76666314E+04,
                      -1.17910878E+02])))

species(name=u'S(6390)',
        atoms='H:14 C:12',
        thermo=(NASA([100.00, 1003.53],
                     [-7.31099440E-01,  7.56134098E-02,  4.24639901E-05,
                      -1.04740683E-07,  4.35086353E-11,  3.68590149E+04,
                       3.67555276E+01]),
                NASA([1003.53, 5000.00],
                     [ 2.27919958E+01,  4.95463866E-02, -1.97566564E-05,
                       3.81182129E-09, -2.79291152E-13,  2.87291061E+04,
                      -9.37960974E+01])))

species(name=u'S(6481)',
        atoms='H:13 C:12',
        thermo=(NASA([100.00, 1046.61],
                     [-1.07930400E+00,  9.14331845E-02, -1.73953083E-05,
                      -3.75004600E-08,  1.90005624E-11,  4.50494517E+04,
                       3.64878651E+01]),
                NASA([1046.61, 5000.00],
                     [ 2.08340965E+01,  5.07232349E-02, -2.07352995E-05,
                       3.91955290E-09, -2.79023502E-13,  3.81052249E+04,
                      -8.14914172E+01])))

species(name=u'S(6694)',
        atoms='H:22 C:18',
        thermo=(NASA([100.00, 995.85],
                     [-4.60174932E+00,  1.44202308E-01,  2.40022694E-05,
                      -1.35919121E-07,  6.17336051E-11,  5.53286103E+04,
                       6.08925783E+01]),
                NASA([995.85, 5000.00],
                     [ 3.90764009E+01,  7.39879848E-02, -2.87331117E-05,
                       5.48746727E-09, -4.01436598E-13,  4.14114434E+04,
                      -1.75845149E+02])))

species(name=u'S(6729)',
        atoms='H:22 C:18',
        thermo=(NASA([100.00, 1060.75],
                     [-4.09551795E+00,  1.42035079E-01, -6.10576321E-06,
                      -8.17399442E-08,  3.68688552E-11,  4.09962900E+04,
                       5.40274362E+01]),
                NASA([1060.75, 5000.00],
                     [ 3.19366837E+01,  8.47351337E-02, -3.61905067E-05,
                       7.00074467E-09, -5.04200464E-13,  2.89315163E+04,
                      -1.42769072E+02])))

species(name=u'S(7855)',
        atoms='H:18 C:14',
        thermo=(NASA([100.00, 1016.72],
                     [-2.87185983E+00,  1.22144332E-01, -2.22415097E-05,
                      -5.81652133E-08,  3.02852140E-11,  2.95050557E+04,
                       4.52019939E+01]),
                NASA([1016.72, 5000.00],
                     [ 2.94649614E+01,  5.88919823E-02, -2.32976785E-05,
                       4.40934144E-09, -3.17356888E-13,  1.96233399E+04,
                      -1.27599963E+02])))

species(name=u'S(9002)',
        atoms='H:18 C:14',
        thermo=(NASA([100.00, 1010.06],
                     [-2.33506065E+00,  1.03305795E-01,  3.55023188E-05,
                      -1.17433798E-07,  5.03885471E-11,  3.27234209E+04,
                       4.68004000E+01]),
                NASA([1010.06, 5000.00],
                     [ 3.02338935E+01,  5.88529253E-02, -2.40088073E-05,
                       4.69651003E-09, -3.46635606E-13,  2.18324029E+04,
                      -1.31995840E+02])))

species(name=u'S(9621)',
        atoms='H:18 C:14',
        thermo=(NASA([100.00, 1011.36],
                     [-2.28409685E+00,  1.01194196E-01,  4.50166671E-05,
                      -1.26701291E-07,  5.32760540E-11,  2.92426394E+04,
                       4.63066654E+01]),
                NASA([1011.36, 5000.00],
                     [ 2.99002121E+01,  6.12136730E-02, -2.51822609E-05,
                       4.93410052E-09, -3.64072316E-13,  1.82674113E+04,
                      -1.31403111E+02])))

species(name=u'S(10078)',
        atoms='H:26 C:20',
        thermo=(NASA([100.00, 1059.51],
                     [-5.72654647E+00,  1.74399009E-01, -3.37848603E-05,
                      -7.04786811E-08,  3.54007806E-11,  3.35675843E+04,
                       6.09534755E+01]),
                NASA([1059.51, 5000.00],
                     [ 3.72364157E+01,  9.55057639E-02, -4.00333581E-05,
                       7.66498181E-09, -5.48915439E-13,  1.97878735E+04,
                      -1.70867347E+02])))

species(name=u'S(10081)',
        atoms='H:26 C:20',
        thermo=(NASA([100.00, 1003.09],
                     [-5.68828244E+00,  1.62587343E-01,  2.52906219E-05,
                      -1.49221079E-07,  6.73986692E-11,  3.03143252E+04,
                       6.38796778E+01]),
                NASA([1003.09, 5000.00],
                     [ 4.33614347E+01,  8.43916016E-02, -3.33328416E-05,
                       6.41755091E-09, -4.70469784E-13,  1.45678036E+04,
                      -2.02348550E+02])))

species(name=u'S(28970)',
        atoms='H:16 C:14',
        thermo=(NASA([100.00, 1340.50],
                     [-2.92319131E+00,  1.31850326E-01, -8.53162122E-05,
                       2.35323558E-08, -1.75725779E-12,  4.36704180E+04,
                       4.46690297E+01]),
                NASA([1340.50, 5000.00],
                     [ 2.86949268E+01,  5.76235354E-02, -2.47719828E-05,
                       4.61912507E-09, -3.18205447E-13,  3.33858370E+04,
                      -1.23878439E+02])))

species(name=u'S(38617)',
        atoms='H:14 C:10',
        thermo=(NASA([100.00, 1066.04],
                     [-8.36866511E-01,  9.11734277E-02, -4.03442446E-05,
                      -8.06847868E-09,  8.32995016E-12,  2.10908405E+04,
                       3.64622873E+01]),
                NASA([1066.04, 5000.00],
                     [ 1.84323227E+01,  4.73275223E-02, -1.86897690E-05,
                       3.42943587E-09, -2.38675945E-13,  1.53655751E+04,
                      -6.53164858E+01])))

species(name=u'S(39282)',
        atoms='H:22 C:16',
        thermo=(NASA([100.00, 1048.73],
                     [-4.92270815E+00,  1.72160024E-01, -1.10811850E-04,
                       1.98132211E-08,  5.20170029E-12,  4.08958311E+04,
                       6.40294488E+01]),
                NASA([1048.73, 5000.00],
                     [ 3.23388199E+01,  7.19635348E-02, -2.74644610E-05,
                       4.94832876E-09, -3.41454903E-13,  3.07748854E+04,
                      -1.28500573E+02])))

species(name=u'X(1)',
        atoms='X:1',
        thermo=(NASA([100.00, 1554.80],
                     [ 7.10139498E-03, -4.25619522E-05,  8.98533016E-08,
                      -7.80193649E-11,  2.32465471E-14, -8.76101712E-01,
                      -3.11211229E-02]),
                NASA([1554.80, 5000.00],
                     [ 1.60299900E-01, -2.52235409E-04,  1.14181275E-07,
                      -1.21471653E-11,  3.85790025E-16, -7.08100885E+01,
                      -9.09527530E-01])))

species(name=u'HX(5)',
        atoms='H:1 X:1',
        thermo=(NASA([100.00, 952.91],
                     [-3.80965452E-01,  5.47228709E-03,  2.60912778E-06,
                      -9.64961980E-09,  4.63946753E-12, -9.42254356E+03,
                       1.01725550E+00]),
                NASA([952.91, 5000.00],
                     [ 2.80339655E+00, -5.41047017E-04,  4.99507978E-07,
                      -7.54963647E-11,  3.06772366E-15, -1.03632930E+04,
                      -1.59436787E+01])))

species(name=u'C2H3X(37)',
        atoms='H:3 C:2 X:1',
        thermo=(NASA([100.00, 928.62],
                     [ 3.83091018E+00, -8.76381562E-03,  6.97956896E-05,
                      -8.67969174E-08,  3.33218121E-11,  1.53806450E+04,
                      -1.81151753E+01]),
                NASA([928.62, 5000.00],
                     [ 8.78054562E+00,  1.92497720E-03,  8.25825014E-07,
                      -1.63749818E-10,  5.71728318E-15,  1.30812419E+04,
                      -4.90588618E+01])))

species(name=u'C2H5X(40)',
        atoms='H:5 C:2 X:1',
        thermo=(NASA([100.00, 803.81],
                     [-1.64625424E+00,  3.89626488E-02, -4.31128887E-05,
                       2.97076939E-08, -8.80222915E-12,  3.67645335E+03,
                       9.27323637E+00]),
                NASA([803.81, 5000.00],
                     [ 1.97598112E+00,  2.09382766E-02, -9.47916922E-06,
                       1.81392948E-09, -1.27206354E-13,  3.09410457E+03,
                      -7.41107956E+00])))

species(name=u'C4H5X(80)',
        atoms='H:5 C:4 X:1',
        thermo=(NASA([100.00, 936.52],
                     [ 2.68471723E+00,  1.36244496E-02,  5.32591849E-05,
                      -8.32912448E-08,  3.41499374E-11,  1.74738752E+04,
                      -1.06510487E+01]),
                NASA([936.52, 5000.00],
                     [ 1.29012266E+01,  8.96921861E-03, -1.71920076E-06,
                       2.89744517E-10, -2.58686364E-14,  1.38508362E+04,
                      -6.83963397E+01])))

species(name=u'C4H5X(81)',
        atoms='H:5 C:4 X:1',
        thermo=(NASA([100.00, 928.63],
                     [ 2.64232495E+00,  8.31109593E-03,  8.12146261E-05,
                      -1.21398701E-07,  4.98630759E-11,  2.26567839E+04,
                      -1.03932963E+01]),
                NASA([928.63, 5000.00],
                     [ 1.69490474E+01,  2.00818812E-03,  2.03468841E-06,
                      -4.02657023E-10,  1.85400094E-14,  1.76142896E+04,
                      -9.11990785E+01])))

species(name=u'C6H7X(143)',
        atoms='H:7 C:6 X:1',
        thermo=(NASA([100.00, 945.31],
                     [ 1.76545134E+00,  3.00643386E-02,  5.04823806E-05,
                      -9.18356912E-08,  3.86710488E-11,  3.05564199E+04,
                      -4.22047906E+00]),
                NASA([945.31, 5000.00],
                     [ 1.62876414E+01,  1.66989483E-02, -4.60790511E-06,
                       8.23797195E-10, -6.40998588E-14,  2.56623872E+04,
                      -8.48285150E+01])))

species(name=u'SX(408)',
        atoms='H:15 C:12 X:1',
        thermo=(NASA([100.00, 987.58],
                     [-9.53673816E-01,  6.94567418E-02,  9.89953662E-05,
                      -1.75789719E-07,  7.03673048E-11,  2.66229135E+04,
                       1.65075881E+01]),
                NASA([987.58, 5000.00],
                     [ 2.75829861E+01,  5.08329941E-02, -1.99853220E-05,
                       3.94206265E-09, -2.96893311E-13,  1.62582504E+04,
                      -1.44747128E+02])))

species(name=u'SX(409)',
        atoms='H:15 C:12 X:1',
        thermo=(NASA([100.00, 979.08],
                     [-1.33399033E+00,  8.15327144E-02,  6.10796305E-05,
                      -1.40544064E-07,  5.96430299E-11,  3.06669113E+04,
                       1.53202014E+01]),
                NASA([979.08, 5000.00],
                     [ 2.88000583E+01,  4.54039529E-02, -1.68327432E-05,
                       3.24878532E-09, -2.43575828E-13,  2.05971390E+04,
                      -1.50712786E+02])))

species(name=u'SX(411)',
        atoms='H:15 C:12 X:1',
        thermo=(NASA([100.00, 975.90],
                     [-1.51414519E+00,  8.61139252E-02,  4.96902414E-05,
                      -1.31247290E-07,  5.71155160E-11,  3.03639967E+04,
                       1.54842336E+01]),
                NASA([975.90, 5000.00],
                     [ 2.97270467E+01,  4.33700161E-02, -1.57320116E-05,
                       3.01842347E-09, -2.26501124E-13,  2.02041444E+04,
                      -1.55286980E+02])))

species(name=u'SX(412)',
        atoms='H:15 C:12 X:1',
        thermo=(NASA([100.00, 975.90],
                     [-1.51414519E+00,  8.61139252E-02,  4.96902414E-05,
                      -1.31247290E-07,  5.71155160E-11,  3.03639967E+04,
                       1.54842336E+01]),
                NASA([975.90, 5000.00],
                     [ 2.97270467E+01,  4.33700161E-02, -1.57320116E-05,
                       3.01842347E-09, -2.26501124E-13,  2.02041444E+04,
                      -1.55286980E+02])))

species(name=u'SX(413)',
        atoms='H:15 C:12 X:1',
        thermo=(NASA([100.00, 970.41],
                     [-1.56569509E+00,  8.81414876E-02,  4.50605462E-05,
                      -1.27176203E-07,  5.60968067E-11,  2.56930082E+04,
                       1.47918280E+01]),
                NASA([970.41, 5000.00],
                     [ 2.93698510E+01,  4.39659324E-02, -1.54771168E-05,
                       2.91255684E-09, -2.16617391E-13,  1.57649383E+04,
                      -1.53743548E+02])))

species(name=u'SX(414)',
        atoms='H:15 C:12 X:1',
        thermo=(NASA([100.00, 970.72],
                     [-1.55417774E+00,  8.50306529E-02,  5.78320529E-05,
                      -1.43136626E-07,  6.21619029E-11,  3.14803554E+04,
                       1.55571823E+01]),
                NASA([970.72, 5000.00],
                     [ 3.11250979E+01,  4.10896422E-02, -1.44501156E-05,
                       2.77759506E-09, -2.10876373E-13,  2.08616238E+04,
                      -1.63146059E+02])))

species(name=u'SX(415)',
        atoms='H:15 C:12 X:1',
        thermo=(NASA([100.00, 970.72],
                     [-1.55417774E+00,  8.50306529E-02,  5.78320529E-05,
                      -1.43136626E-07,  6.21619029E-11,  3.14803554E+04,
                       1.55571823E+01]),
                NASA([970.72, 5000.00],
                     [ 3.11250979E+01,  4.10896422E-02, -1.44501156E-05,
                       2.77759506E-09, -2.10876373E-13,  2.08616238E+04,
                      -1.63146059E+02])))

species(name=u'SX(717)',
        atoms='H:11 C:8 X:1',
        thermo=(NASA([100.00, 950.15],
                     [-5.48114945E-02,  6.95516648E-02,  2.46715274E-06,
                      -5.99529360E-08,  3.01468379E-11,  1.60075898E+04,
                       7.02236222E+00]),
                NASA([950.15, 5000.00],
                     [ 2.11624883E+01,  2.85157015E-02, -8.97838801E-06,
                       1.56332110E-09, -1.12027508E-13,  9.79607629E+03,
                      -1.05723607E+02])))

species(name=u'SX(6562)',
        atoms='H:13 C:12 X:1',
        thermo=(NASA([100.00, 1019.74],
                     [-1.10501552E+00,  8.84006179E-02,  3.46472975E-06,
                      -6.36418307E-08,  2.89973556E-11,  3.82180655E+04,
                       1.56573229E+01]),
                NASA([1019.74, 5000.00],
                     [ 2.22603532E+01,  5.07061100E-02, -2.04585178E-05,
                       3.88802568E-09, -2.79719604E-13,  3.06473156E+04,
                      -1.11279480E+02])))

species(name=u'SX(6632)',
        atoms='H:15 C:12 X:1',
        thermo=(NASA([100.00, 987.58],
                     [-9.53673816E-01,  6.94567418E-02,  9.89953662E-05,
                      -1.75789719E-07,  7.03673048E-11,  2.66229135E+04,
                       1.65075881E+01]),
                NASA([987.58, 5000.00],
                     [ 2.75829861E+01,  5.08329941E-02, -1.99853220E-05,