units(length='cm', time='s', quantity='mol', act_energy='kcal/mol')

ideal_gas(name='gas',
          elements="H D T C Ci O Oi N Ne Ar He Si S Cl X",
          species="""n-heptane   Ar          He          Ne
                     N2          C2H4(2)     C4H8-1(3)   C4H8-2(4)
                     C4H6(7)     C3H6(24)    H2(47)      C6H10k(95)
                     C8H12(99)   C6H10(146)  C8H14(155)  C4H8(178)
                     C6H10(179)  C8H12(182)  C8H12(183)  S(257)
                     CH4(426)    C5H8c(430)  C5H10(431)  C5H10(434)
                     C5H10(435)  C2H6(448)   C7H12(478)  C7H12(589)
                     C6H10(610)  S(1040)     S(1569)     S(2372)
                     S(2379)     C3H8(2866)  S(2896)     S(2907)
                     S(3117)     S(3159)     S(4737)     S(5473)
                     S(9090)""",
          reactions='gas-*',
          initial_state=state(temperature=300.0, pressure=OneAtm))

ideal_interface(name='surface1',
                elements="H D T C Ci O Oi N Ne Ar He Si S Cl X",
                species="""X(1)        HX(5)       C2H3X(27)   allylX(28)
                          CH3X(29)    C2H5X(30)   C4H7X(31)   C4H7X(32)
                          C4H7X(33)   C4H7X(34)   C3H5X(35)   C4H7X(36)
                          C4H7X(37)   C4H5X(56)   C4H5X(57)   C6H9X(65)
                          C6H9X(66)   C8H11X(76)  C8H11X(77)  C6H9X(80)
                          C8H11X(85)  C8H11X(86)  C6H9X(103)  C6H9X(104)
                          C4H7X(141)  C3H5X(172)  C4H7X(192)  C6H9X(244)
                          C6H9X(285)  C5H7X(286)  C5H7X(309)  C6H9X(338)
                          C6H9X(339)  C6H9X(341)  C3H7X(422)  C5H9X(427)
                          C5H9X(428)  C6H9X(449)  C5H7X(450)  SX(486)
                          SX(487)     SX(488)     SX(489)     SX(490)
                          SX(491)     C5H9X(579)  C5H9X(638)  C3H7X(679)
                          C5H9X(680)  SX(684)     SX(685)     SX(686)
                          SX(687)     SX(749)     SX(797)     SX(891)
                          SX(892)     SX(893)     SX(894)     SX(895)
                          SX(1203)    SX(1204)    SX(1233)    SX(1262)
                          SX(1263)    SX(1265)    SX(1371)    SX(1372)
                          SX(1399)    SX(1421)    SX(1458)    SX(1528)
                          SX(1562)    SX(1651)    SX(1688)    SX(1689)
                          SX(1690)    SX(1703)    SX(1704)    SX(1857)
                          SX(1883)    SX(1884)    SX(1900)    SX(1901)
                          SX(1953)    SX(1994)    SX(2016)    SX(2017)
                          SX(2018)    SX(2019)    SX(2020)    SX(2175)
                          SX(2176)    SX(2190)    SX(2191)    SX(2228)
                          SX(2327)    SX(2328)    SX(2329)    SX(2363)
                          SX(2383)    SX(2384)    SX(2399)    SX(2400)
                          SX(2451)    SX(2452)    SX(2504)    SX(2528)
                          SX(2569)    SX(2570)    SX(2650)    SX(2652)
                          SX(2910)    SX(2938)    SX(3243)    SX(3547)
                          SX(3556)    SX(3744)    SX(3824)    SX(4032)
                          SX(4033)    SX(4200)    SX(4267)    SX(4272)
                          SX(4282)    SX(4290)    SX(4291)    SX(4292)
                          SX(4293)    SX(4294)    SX(4297)    SX(4322)
                          SX(4408)    SX(4564)    SX(4590)    SX(4592)
                          SX(4649)    SX(4650)    SX(4666)    SX(4667)
                          SX(4704)    SX(4865)    SX(4920)    SX(5016)
                          SX(5044)    SX(5046)    SX(5109)    SX(5114)
                          SX(5121)    SX(5154)    SX(5155)    SX(5156)
                          SX(5157)    SX(5158)    SX(5213)    SX(5215)
                          SX(5440)    SX(5538)    SX(5574)    SX(5575)
                          SX(5577)    SX(5584)    SX(5596)    SX(5650)
                          SX(5706)    SX(5752)    SX(5753)    SX(5960)
                          SX(6046)    SX(6047)    SX(6142)    SX(6143)
                          SX(6153)    SX(6166)    SX(6167)    SX(6168)
                          SX(6180)    SX(6181)    SX(6182)    SX(6230)
                          SX(6256)    SX(6494)    SX(6495)    SX(6747)
                          SX(6748)    SX(6968)    SX(7288)    SX(7289)
                          SX(7573)    SX(7654)    SX(7655)    SX(7781)
                          SX(7848)    SX(7953)    SX(8015)    SX(8017)
                          SX(8404)    SX(8444)    SX(8446)    SX(8508)
                          SX(8550)    SX(8707)    SX(8881)    SX(8980)
                          SX(8992)    SX(9002)    SX(9004)    SX(9017)
                          SX(9018)    SX(9019)    SX(9045)    SX(9048)
                          SX(9074)    SX(9080)    SX(9082)    SX(9114)
                          SX(9115)    SX(9122)    SX(9123)    SX(9144)
                          SX(9148)    SX(9159)    SX(9174)    SX(9247)
                          SX(9421)    SX(9579)    SX(9648)    SX(9766)
                          SX(9818)    SX(9819)    SX(9824)    SX(9828)
                          SX(9829)    SX(9857)    SX(9881)    SX(9908)
                          SX(9909)    SX(9974)    SX(10000)   SX(10057)
                          SX(10077)   SX(10091)   SX(10095)   SX(10120)
                          SX(10262)   SX(10263)   SX(10264)   SX(10267)
                          SX(10269)   SX(10270)   SX(10271)   SX(10291)
                          SX(10294)   SX(10325)   SX(10326)   SX(10333)
                          SX(10334)   SX(10335)   SX(10367)   SX(10368)
                          SX(10376)   SX(10377)   SX(10386)   SX(10393)
                          SX(10402)   SX(10403)   SX(10437)   SX(10572)
                          SX(10723)   SX(10724)   SX(10726)   SX(10730)
                          SX(10746)   SX(10747)   SX(10772)   SX(10775)
                          SX(10824)   SX(10825)   SX(10826)""",
                site_density=2.72e-09,
                phases="gas",
          reactions='surface1-*',
                initial_state=state(temperature=300.0, pressure=OneAtm))

#-------------------------------------------------------------------------------
# Element data
#-------------------------------------------------------------------------------

element(symbol=u'X', atomic_mass=195.083)
element(symbol=u'Ci', atomic_mass=13.003)
element(symbol=u'D', atomic_mass=2.014)
element(symbol=u'Oi', atomic_mass=18.0)
element(symbol=u'T', atomic_mass=3.016)
#-------------------------------------------------------------------------------
# Species data
#-------------------------------------------------------------------------------

species(name=u'n-heptane',
        atoms='H:16 C:7',
        thermo=(NASA([100.00, 1262.73],
                     [-2.91681405E-03,  7.69373649E-02, -3.48025563E-05,
                       1.86095180E-09,  2.01573617E-12, -2.57829342E+04,
                       3.00312148E+01]),
                NASA([1262.73, 5000.00],
                     [ 1.38377915E+01,  4.85945016E-02, -1.95474548E-05,
                       3.52837178E-09, -2.39064676E-13, -3.05141556E+04,
                      -4.48642836E+01])))

species(name=u'Ar',
        atoms='Ar:1',
        thermo=(NASA([200.00, 1000.00],
                     [ 2.50000000E+00,  0.00000000E+00,  0.00000000E+00,
                       0.00000000E+00,  0.00000000E+00, -7.45375000E+02,
                       4.37967000E+00]),
                NASA([1000.00, 6000.00],
                     [ 2.50000000E+00,  0.00000000E+00,  0.00000000E+00,
                       0.00000000E+00,  0.00000000E+00, -7.45375000E+02,
                       4.37967000E+00])))

species(name=u'He',
        atoms='He:1',
        thermo=(NASA([200.00, 1000.00],
                     [ 2.50000000E+00,  0.00000000E+00,  0.00000000E+00,
                       0.00000000E+00,  0.00000000E+00, -7.45375000E+02,
                       9.28724000E-01]),
                NASA([1000.00, 6000.00],
                     [ 2.50000000E+00,  0.00000000E+00,  0.00000000E+00,
                       0.00000000E+00,  0.00000000E+00, -7.45375000E+02,
                       9.28724000E-01])))

species(name=u'Ne',
        atoms='Ne:1',
        thermo=(NASA([200.00, 1000.00],
                     [ 2.50000000E+00,  0.00000000E+00,  0.00000000E+00,
                       0.00000000E+00,  0.00000000E+00, -7.45375000E+02,
                       3.35532000E+00]),
                NASA([1000.00, 6000.00],
                     [ 2.50000000E+00,  0.00000000E+00,  0.00000000E+00,
                       0.00000000E+00,  0.00000000E+00, -7.45375000E+02,
                       3.35532000E+00])))

species(name=u'N2',
        atoms='N:2',
        thermo=(NASA([200.00, 1000.00],
                     [ 3.53101000E+00, -1.23661000E-04, -5.02999000E-07,
                       2.43531000E-09, -1.40881000E-12, -1.04698000E+03,
                       2.96747000E+00]),
                NASA([1000.00, 6000.00],
                     [ 2.95258000E+00,  1.39690000E-03, -4.92632000E-07,
                       7.86010000E-11, -4.60755000E-15, -9.23949000E+02,
                       5.87189000E+00])))

species(name=u'C2H4(2)',
        atoms='H:4 C:2',
        thermo=(NASA([100.00, 979.36],
                     [ 3.97471606E+00, -4.75844285E-03,  4.16783770E-05,
                      -4.51392516E-08,  1.54224761E-11,  4.91540746E+03,
                       3.62430844E+00]),
                NASA([979.36, 5000.00],
                     [ 3.55660610E+00,  1.10627464E-02, -4.17019079E-06,
                       7.85586770E-10, -5.70060829E-14,  4.32046489E+03,
                       2.17719479E+00])))

species(name=u'C4H8-1(3)',
        atoms='H:8 C:4',
        thermo=(NASA([100.00, 1007.28],
                     [ 2.58772906E+00,  2.32777969E-02,  1.93412349E-05,
                      -3.55496333E-08,  1.36906009E-11, -1.91872926E+03,
                       1.45750618E+01]),
                NASA([1007.28, 5000.00],
                     [ 7.20517168E+00,  2.36361568E-02, -9.03150028E-06,
                       1.65392666E-09, -1.16019260E-13, -3.79733937E+03,
                      -1.24426257E+01])))

species(name=u'C4H8-2(4)',
        atoms='H:8 C:4',
        thermo=(NASA([100.00, 1157.79],
                     [ 2.51998327E+00,  2.76812799E-02,  9.43783469E-07,
                      -1.25009101E-08,  4.67144666E-12, -3.34374767E+03,
                       1.30195623E+01]),
                NASA([1157.79, 5000.00],
                     [ 6.04225708E+00,  2.60072350E-02, -1.04843374E-05,
                       1.90880922E-09, -1.30600505E-13, -4.86276511E+03,
                      -7.52715109E+00])))

species(name=u'C4H6(7)',
        atoms='H:6 C:4',
        thermo=(NASA([100.00, 946.05],
                     [ 2.80599310E+00,  1.02584471E-02,  6.17260255E-05,
                      -9.01642687E-08,  3.59116961E-11,  1.16584972E+04,
                       1.20621434E+01]),
                NASA([946.05, 5000.00],
                     [ 1.24693720E+01,  1.00553901E-02, -2.41206872E-06,
                       4.57077303E-10, -3.93160571E-14,  8.01077795E+03,
                      -4.36374720E+01])))

species(name=u'C3H6(24)',
        atoms='H:6 C:3',
        thermo=(NASA([100.00, 983.75],
                     [ 3.31912102E+00,  8.17958674E-03,  3.34736123E-05,
                      -4.36193684E-08,  1.58213364E-11,  7.49325328E+02,
                       9.54025058E+00]),
                NASA([983.75, 5000.00],
                     [ 5.36755173E+00,  1.70743019E-02, -6.35107626E-06,
                       1.16619529E-09, -8.27620279E-14, -4.87138326E+02,
                      -4.54467529E+00])))

species(name=u'H2(47)',
        atoms='H:2',
        thermo=(NASA([100.00, 1959.08],
                     [ 3.43536412E+00,  2.12710353E-04, -2.78625043E-07,
                       3.40267167E-10, -7.76031998E-14, -1.03135984E+03,
                      -3.90841732E+00]),
                NASA([1959.08, 5000.00],
                     [ 2.78816583E+00,  5.87640942E-04,  1.59010417E-07,
                      -5.52739026E-11,  4.34310984E-15, -5.96144270E+02,
                       1.12732655E-01])))

species(name=u'C6H10k(95)',
        atoms='H:10 C:6',
        thermo=(NASA([100.00, 1036.89],
                     [ 1.50874221E+00,  4.27939676E-02,  1.00407781E-05,
                      -3.76644958E-08,  1.56320088E-11,  7.74480595E+03,
                       2.33493905E+01]),
                NASA([1036.89, 5000.00],
                     [ 1.16601041E+01,  3.10397815E-02, -1.26024374E-05,
                       2.38495409E-09, -1.70150727E-13,  4.16633351E+03,
                      -3.30972272E+01])))

species(name=u'C8H12(99)',
        atoms='H:12 C:8',
        thermo=(NASA([100.00, 1002.94],
                     [ 1.69489980E-02,  7.28189377E-02, -2.16585698E-05,
                      -2.40807783E-08,  1.44597041E-11,  1.38562447E+04,
                       3.07679077E+01]),
                NASA([1002.94, 5000.00],
                     [ 1.77276883E+01,  3.45993801E-02, -1.29781828E-05,
                       2.37500136E-09, -1.67643536E-13,  8.67334638E+03,
                      -6.28559377E+01])))

species(name=u'C6H10(146)',
        atoms='H:10 C:6',
        thermo=(NASA([100.00, 1020.63],
                     [ 9.97427413E-01,  5.59777045E-02, -2.05880600E-05,
                      -1.17182304E-08,  8.13452041E-12,  6.30749855E+03,
                       2.38941836E+01]),
                NASA([1020.63, 5000.00],
                     [ 1.33828218E+01,  2.83661253E-02, -1.07663110E-05,
                       1.95749020E-09, -1.36589418E-13,  2.68926840E+03,
                      -4.14511818E+01])))

species(name=u'C8H14(155)',
        atoms='H:14 C:8',
        thermo=(NASA([100.00, 1014.29],
                     [-3.67121846E-01,  8.14233516E-02, -3.11110886E-05,
                      -1.65487757E-08,  1.19185866E-11, -3.02333684E+03,
                       3.00035003E+01]),
                NASA([1014.29, 5000.00],
                     [ 1.79686767E+01,  3.98264136E-02, -1.50150741E-05,
                       2.72531006E-09, -1.90287561E-13, -8.32275149E+03,
                      -6.65042554E+01])))

species(name=u'C4H8(178)',
        atoms='H:8 C:4',
        thermo=(NASA([100.00, 1061.33],
                     [ 2.52504770E+00,  2.64752782E-02,  7.08359238E-06,
                      -2.07731462E-08,  8.00430055E-12, -4.02607130E+03,
                       1.28857274E+01]),
                NASA([1061.33, 5000.00],
                     [ 6.48672669E+00,  2.49943921E-02, -9.83283171E-06,
                       1.79343299E-09, -1.24008235E-13, -5.62452310E+03,
                      -1.00316397E+01])))

species(name=u'C6H10(179)',
        atoms='H:10 C:6',
        thermo=(NASA([100.00, 1020.63],
                     [ 9.97427413E-01,  5.59777045E-02, -2.05880600E-05,
                      -1.17182304E-08,  8.13452041E-12,  6.30749855E+03,
                       2.38941836E+01]),
                NASA([1020.63, 5000.00],
                     [ 1.33828218E+01,  2.83661253E-02, -1.07663110E-05,
                       1.95749020E-09, -1.36589418E-13,  2.68926840E+03,
                      -4.14511818E+01])))

species(name=u'C8H12(182)',
        atoms='H:12 C:8',
        thermo=(NASA([100.00, 1018.55],
                     [ 6.01063084E-02,  7.29655393E-02, -2.58705028E-05,
                      -1.72899943E-08,  1.14983085E-11,  1.23574076E+04,
                       3.03580987E+01]),
                NASA([1018.55, 5000.00],
                     [ 1.68364676E+01,  3.58886254E-02, -1.36909925E-05,
                       2.50533844E-09, -1.75806316E-13,  7.44565539E+03,
                      -5.82216573E+01])))

species(name=u'C8H12(183)',
        atoms='H:12 C:8',
        thermo=(NASA([100.00, 1016.52],
                     [-1.10429280E-01,  7.70814645E-02, -3.47833140E-05,
                      -1.00302869E-08,  9.42640217E-12,  1.21750142E+04,
                       2.97645889E+01]),
                NASA([1016.52, 5000.00],
                     [ 1.75623558E+01,  3.50022757E-02, -1.32158186E-05,
                       2.40320183E-09, -1.68059077E-13,  7.16317806E+03,
                      -6.27651255E+01])))

species(name=u'S(257)',
        atoms='H:16 C:10',
        thermo=(NASA([100.00, 1050.23],
                     [-1.54493814E+00,  1.05468860E-01, -5.71170539E-05,
                       2.19606261E-10,  7.09552345E-12,  6.66890775E+03,
                       3.98893243E+01]),
                NASA([1050.23, 5000.00],
                     [ 2.15402055E+01,  4.80180651E-02, -1.85864175E-05,
                       3.38935389E-09, -2.35755397E-13,  1.39391206E+02,
                      -8.06155283E+01])))

species(name=u'CH4(426)',
        atoms='H:4 C:1',
        thermo=(NASA([100.00, 1084.12],
                     [ 4.20541524E+00, -5.35557362E-03,  2.51123265E-05,
                      -2.13762843E-08,  5.97523937E-12, -1.01619433E+04,
                      -9.21279283E-01]),
                NASA([1084.12, 5000.00],
                     [ 9.08265721E-01,  1.14540858E-02, -4.57173828E-06,
                       8.29191671E-10, -5.66314895E-14, -9.71997444E+03,
                       1.39930944E+01])))

species(name=u'C5H8c(430)',
        atoms='H:8 C:5',
        thermo=(NASA([100.00, 1004.86],
                     [ 1.98273955E+00,  3.49998332E-02,  6.98515281E-06,
                      -3.05031334E-08,  1.32246652E-11,  6.96521034E+03,
                       1.60818191E+01]),
                NASA([1004.86, 5000.00],
                     [ 1.01246420E+01,  2.42323877E-02, -9.24886971E-06,
                       1.70115950E-09, -1.20059732E-13,  4.23624320E+03,
                      -2.86745770E+01])))

species(name=u'C5H10(431)',
        atoms='H:10 C:5',
        thermo=(NASA([100.00, 1883.68],
                     [ 2.29195787E+00,  4.21076449E-02, -1.49304794E-05,
                      -1.22102583E-10,  5.99441346E-13, -4.98138150E+03,
                       1.67887076E+01]),
                NASA([1883.68, 5000.00],
                     [ 1.47438472E+01,  2.72460315E-02, -1.23172689E-05,
                       2.21660273E-09, -1.44084857E-13, -1.17269008E+04,
                      -5.66226025E+01])))

species(name=u'C5H10(434)',
        atoms='H:10 C:5',
        thermo=(NASA([100.00, 960.03],
                     [ 1.92494941E+00,  3.23872757E-02,  3.28626489E-05,
                      -6.30221575E-08,  2.59714460E-11, -5.50776492E+03,
                       1.86664331E+01]),
                NASA([960.03, 5000.00],
                     [ 1.12167303E+01,  2.64314616E-02, -9.01591566E-06,
                       1.60298644E-09, -1.13436933E-13, -8.80144986E+03,
                      -3.36443365E+01])))

species(name=u'C5H10(435)',
        atoms='H:10 C:5',
        thermo=(NASA([100.00, 1065.88],
                     [ 1.83973645E+00,  3.88165649E-02,  3.95415802E-06,
                      -2.48620336E-08,  1.01608534E-11, -6.45875726E+03,
                       1.88194915E+01]),
                NASA([1065.88, 5000.00],
                     [ 8.87931728E+00,  3.15047857E-02, -1.26438740E-05,
                       2.33666558E-09, -1.63001335E-13, -9.04475166E+03,
                      -2.06827600E+01])))

species(name=u'C2H6(448)',
        atoms='H:6 C:2',
        thermo=(NASA([100.00, 1012.42],
                     [ 3.72239291E+00,  1.65083841E-03,  3.44175530E-05,
                      -3.76858229E-08,  1.24450657E-11, -1.15575901E+04,
                       4.68247999E+00]),
                NASA([1012.42, 5000.00],
                     [ 2.82848257E+00,  1.73040568E-02, -6.73334245E-06,
                       1.23742024E-09, -8.65676410E-14, -1.19978080E+04,
                       5.93811707E+00])))

species(name=u'C7H12(478)',
        atoms='H:12 C:7',
        thermo=(NASA([100.00, 999.68],
                     [ 4.29571406E-01,  6.49379719E-02, -1.42316263E-05,
                      -2.68110632E-08,  1.46756236E-11,  1.33179837E+03,
                       2.65680971E+01]),
                NASA([999.68, 5000.00],
                     [ 1.58208064E+01,  3.35710199E-02, -1.25070130E-05,
                       2.27563528E-09, -1.59971208E-13, -3.25538740E+03,
                      -5.52328098E+01])))

species(name=u'C7H12(589)',
        atoms='H:12 C:7',
        thermo=(NASA([100.00, 1016.70],
                     [ 3.01260003E-01,  6.93239326E-02, -2.79061455E-05,
                      -1.19417116E-08,  9.27990587E-12, -3.26068174E+02,
                       2.53851511E+01]),
                NASA([1016.70, 5000.00],
                     [ 1.55703568E+01,  3.41922940E-02, -1.28717489E-05,
                       2.32849221E-09, -1.62040961E-13, -4.71997327E+03,
                      -5.48718412E+01])))

species(name=u'C6H10(610)',
        atoms='H:10 C:6',
        thermo=(NASA([100.00, 1020.63],
                     [ 9.97427413E-01,  5.59777045E-02, -2.05880600E-05,
                      -1.17182304E-08,  8.13452041E-12,  2.84333919E+03,
                       1.95659973E+01]),
                NASA([1020.63, 5000.00],
                     [ 1.33828218E+01,  2.83661253E-02, -1.07663110E-05,
                       1.95749020E-09, -1.36589418E-13, -7.74890955E+02,
                      -4.57793681E+01])))

species(name=u'S(1040)',
        atoms='H:10 C:5',
        thermo=(NASA([100.00, 1054.71],
                     [ 2.07229480E+00,  3.36844001E-02,  1.40189744E-05,
                      -3.27909735E-08,  1.24687335E-11, -7.08395627E+03,
                       1.85216921E+01]),
                NASA([1054.71, 5000.00],
                     [ 7.69906317E+00,  3.25047725E-02, -1.29748243E-05,
                       2.39429532E-09, -1.67023134E-13, -9.39218314E+03,
                      -1.42396425E+01])))

species(name=u'S(1569)',
        atoms='H:16 C:10',
        thermo=(NASA([100.00, 1085.29],
                     [-1.70092362E+00,  1.10044958E-01, -7.12157681E-05,
                       1.53374028E-08,  1.69886408E-12,  4.98893716E+03,
                       3.89900867E+01]),
                NASA([1085.29, 5000.00],
                     [ 2.16427124E+01,  4.79853148E-02, -1.85808259E-05,
                       3.36146218E-09, -2.31602558E-13, -1.49004692E+03,
                      -8.20455320E+01])))

species(name=u'S(2372)',
        atoms='H:18 C:11',
        thermo=(NASA([100.00, 1098.23],
                     [-2.33422004E+00,  1.21887322E-01, -7.64335550E-05,
                       1.49829050E-08,  2.28389276E-12,  3.83778150E+03,
                       4.49705057E+01]),
                NASA([1098.23, 5000.00],
                     [ 2.34928702E+01,  5.47178154E-02, -2.14298317E-05,
                       3.89517297E-09, -2.68779359E-13, -3.45717709E+03,
                      -8.94354947E+01])))

species(name=u'S(2379)',
        atoms='H:14 C:8',
        thermo=(NASA([100.00, 1063.99],
                     [-4.68997475E-01,  8.55445444E-02, -4.66625192E-05,
                       2.29665109E-09,  4.60116787E-12, -3.15804727E+03,
                       3.03964058E+01]),
                NASA([1063.99, 5000.00],
                     [ 1.72795147E+01,  4.12831648E-02, -1.59314792E-05,
                       2.88384127E-09, -1.99076586E-13, -8.20638043E+03,
                      -6.23058631E+01])))

species(name=u'C3H8(2866)',
        atoms='H:8 C:3',
        thermo=(NASA([100.00, 989.99],
                     [ 3.06336167E+00,  1.29214561E-02,  3.47032808E-05,
                      -4.70946154E-08,  1.71384141E-11, -1.43905789E+04,
                       1.07835592E+01]),
                NASA([989.99, 5000.00],
                     [ 5.60440043E+00,  2.19528785E-02, -8.22080610E-06,
                       1.50103993E-09, -1.05635358E-13, -1.58394038E+04,
                      -6.22623300E+00])))

species(name=u'S(2896)',
        atoms='H:16 C:9',
        thermo=(NASA([100.00, 1049.97],
                     [-1.13157002E+00,  9.75807273E-02, -4.96734601E-05,
                      -2.51873214E-09,  7.30840978E-12, -5.85557215E+03,
                       3.56867386E+01]),
                NASA([1049.97, 5000.00],
                     [ 1.96208729E+01,  4.70098745E-02, -1.81264733E-05,
                       3.29257026E-09, -2.28292988E-13, -1.17837758E+04,
                      -7.29216636E+01])))

species(name=u'S(2907)',
        atoms='H:10 C:4',
        thermo=(NASA([100.00, 1147.60],
                     [ 2.16918413E+00,  3.43904632E-02, -1.61564236E-06,
                      -1.30726562E-08,  5.17350451E-12, -1.72505136E+04,
                       1.46546701E+01]),
                NASA([1147.60, 5000.00],
                     [ 6.78903089E+00,  3.03598162E-02, -1.21262050E-05,
                       2.19945025E-09, -1.50289312E-13, -1.91057969E+04,
                      -1.17329103E+01])))

species(name=u'S(3117)',
        atoms='H:18 C:10',
        thermo=(NASA([100.00, 1101.98],
                     [-1.92193078E+00,  1.14010467E-01, -6.90224168E-05,
                       1.22763700E-08,  2.48768194E-12, -8.68664979E+03,
                       4.00787368E+01]),
                NASA([1101.98, 5000.00],
                     [ 2.15873768E+01,  5.36875713E-02, -2.09577621E-05,
                       3.79562531E-09, -2.61093846E-13, -1.53866703E+04,
                      -8.25136692E+01])))

species(name=u'S(3159)',
        atoms='H:10 C:4',
        thermo=(NASA([100.00, 987.08],
                     [ 2.18594095E+00,  3.04312883E-02,  1.83387931E-05,
                      -4.04090927E-08,  1.64481872E-11, -1.82080408E+04,
                       1.37947641E+01]),
                NASA([987.08, 5000.00],
                     [ 8.84811268E+00,  2.61183046E-02, -9.57929598E-06,
                       1.72895160E-09, -1.21006821E-13, -2.06283634E+04,
                      -2.38575760E+01])))

species(name=u'S(4737)',
        atoms='H:18 C:10',
        thermo=(NASA([100.00, 1055.28],
                     [-1.59605023E+00,  1.05530275E-01, -4.62513503E-05,
                      -1.03661215E-08,  1.02213164E-11, -7.94309563E+03,
                       4.15354110E+01]),
                NASA([1055.28, 5000.00],
                     [ 2.06863788E+01,  5.45143644E-02, -2.12752734E-05,
                       3.88789169E-09, -2.70316502E-13, -1.45081741E+04,
                      -7.59867816E+01])))

species(name=u'S(5473)',
        atoms='H:18 C:10',
        thermo=(NASA([100.00, 1094.79],
                     [-1.73795358E+00,  1.09740435E-01, -5.95940445E-05,
                       4.38633164E-09,  4.81035036E-12, -8.68096900E+03,
                       4.14729115E+01]),
                NASA([1094.79, 5000.00],
                     [ 2.07755997E+01,  5.47147585E-02, -2.15120482E-05,
                       3.91609088E-09, -2.70339200E-13, -1.52424356E+04,
                      -7.66340500E+01])))

species(name=u'S(9090)',
        atoms='H:22 C:12',
        thermo=(NASA([100.00, 1122.79],
                     [-3.20986555E+00,  1.38723541E-01, -8.32668659E-05,
                       1.54291809E-08,  2.45621035E-12, -1.48010152E+04,
                       5.10034875E+01]),
                NASA([1122.79, 5000.00],
                     [ 2.51514706E+01,  6.68850606E-02, -2.63039450E-05,
                       4.76954585E-09, -3.27680627E-13, -2.30103656E+04,
                      -9.73047484E+01])))

species(name=u'X(1)',
        atoms='X:1',
        thermo=(NASA([100.00, 1554.80],
                     [ 7.10139498E-03, -4.25619522E-05,  8.98533016E-08,
                      -7.80193649E-11,  2.32465471E-14, -8.76101712E-01,
                      -3.11211229E-02]),
                NASA([1554.80, 5000.00],
                     [ 1.60299900E-01, -2.52235409E-04,  1.14181275E-07,
                      -1.21471653E-11,  3.85790025E-16, -7.08100885E+01,
                      -9.09527530E-01])))

species(name=u'HX(5)',
        atoms='H:1 X:1',
        thermo=(NASA([100.00, 952.91],
                     [-3.80965452E-01,  5.47228709E-03,  2.60912778E-06,
                      -9.64961980E-09,  4.63946753E-12,  5.08308927E+03,
                       1.01725550E+00]),
                NASA([952.91, 5000.00],
                     [ 2.80339655E+00, -5.41047017E-04,  4.99507978E-07,
                      -7.54963647E-11,  3.06772366E-15,  4.14233985E+03,
                      -1.59436787E+01])))

species(name=u'C2H3X(27)',
        atoms='H:3 C:2 X:1',
        thermo=(NASA([100.00, 928.62],
                     [ 3.83091018E+00, -8.76381562E-03,  6.97956896E-05,
                      -8.67969174E-08,  3.33218121E-11,  2.32557546E+03,
                      -1.81151753E+01]),
                NASA([928.62, 5000.00],
                     [ 8.78054562E+00,  1.92497720E-03,  8.25825014E-07,
                      -1.63749818E-10,  5.71728318E-15,  2.61723399E+01,
                      -4.90588618E+01])))

species(name=u'allylX(28)',
        atoms='H:5 C:3 X:1',
        thermo=(NASA([100.00, 937.34],
                     [ 3.44148119E+00, -3.47700003E-03,  8.25933681E-05,
                      -1.05556823E-07,  4.04445066E-11, -1.21626267E+03,
                      -6.88846669E+00]),
                NASA([937.34, 5000.00],
                     [ 9.98148902E+00,  8.92268754E-03, -1.75442587E-06,
                       3.12285771E-10, -2.84156572E-14, -4.21306031E+03,
                      -4.74626902E+01])))

species(name=u'CH3X(29)',
        atoms='H:3 C:1 X:1',
        thermo=(NASA([100.00, 848.30],
                     [-1.21090496E+00,  2.92390681E-02, -4.49011079E-05,
                       3.86009808E-08, -1.30361041E-11, -5.39494117E+03,
                       6.80939750E+00]),
                NASA([848.30, 5000.00],
                     [ 1.62290877E+00,  1.12987268E-02, -5.08316908E-06,