units(length='cm', time='s', quantity='mol', act_energy='kcal/mol')

ideal_gas(name='gas',
          elements="H D T C Ci O Oi N Ne Ar He Si S Cl X",
          species="""n-heptane   Ar          He          Ne
                     N2          C2H4(2)     C4H8-1(3)   C4H8-2(4)
                     C4H6(7)     C4H6a(98)   C6H10(100)  C6H10(141)
                     C6H10(173)  C6H10(346)  C6H10(376)  C6H10(857)
                     S(1236)     S(1760)""",
          reactions='gas-*',
          transport='Mix',
          initial_state=state(temperature=300.0, pressure=OneAtm))

ideal_interface(name='surface1',
                elements="H D T C Ci O Oi N Ne Ar He Si S Cl X",
                species="""X(1)        HX(5)       C2H3X(27)   C2H5X(30)
                          C4H7X(31)   C4H7X(32)   C4H7X(33)   C4H7X(34)
                          C4H9X(44)   C4H9X(45)   C2H2X(49)   C6H11X(51)
                          C6H11X(52)  C6H11X(81)  C4H7X(136)  SX(137)
                          SX(168)     SX(212)     SX(248)     SX(286)
                          SX(287)     SX(347)     SX(348)     SX(399)
                          SX(400)     SX(520)     SX(521)     SX(577)
                          SX(578)     SX(769)     SX(812)     SX(813)
                          SX(814)     SX(858)     SX(946)     SX(993)
                          SX(994)     SX(1041)    SX(1187)    SX(1188)
                          SX(1189)    SX(1237)    SX(1342)    SX(1701)
                          SX(1761)    SX(1938)""",
                site_density=2.72e-09,
                phases="gas",
          reactions='surface1-*',
                initial_state=state(temperature=300.0, pressure=OneAtm))

#-------------------------------------------------------------------------------
# Element data
#-------------------------------------------------------------------------------

element(symbol=u'X', atomic_mass=195.083)
element(symbol=u'Ci', atomic_mass=13.003)
element(symbol=u'D', atomic_mass=2.014)
element(symbol=u'Oi', atomic_mass=18.0)
element(symbol=u'T', atomic_mass=3.016)
#-------------------------------------------------------------------------------
# Species data
#-------------------------------------------------------------------------------

species(name=u'n-heptane',
        atoms='H:16 C:7',
        thermo=(NASA([100.00, 1262.73],
                     [-2.91681405E-03,  7.69373649E-02, -3.48025563E-05,
                       1.86095180E-09,  2.01573617E-12, -2.57829342E+04,
                       3.00312148E+01]),
                NASA([1262.73, 5000.00],
                     [ 1.38377915E+01,  4.85945016E-02, -1.95474548E-05,
                       3.52837178E-09, -2.39064676E-13, -3.05141556E+04,
                      -4.48642836E+01])),
        transport=gas_transport(geom='nonlinear',
                                diam=6.366,
                                well_depth=402.997))

species(name=u'Ar',
        atoms='Ar:1',
        thermo=(NASA([200.00, 1000.00],
                     [ 2.50000000E+00,  0.00000000E+00,  0.00000000E+00,
                       0.00000000E+00,  0.00000000E+00, -7.45375000E+02,
                       4.37967000E+00]),
                NASA([1000.00, 6000.00],
                     [ 2.50000000E+00,  0.00000000E+00,  0.00000000E+00,
                       0.00000000E+00,  0.00000000E+00, -7.45375000E+02,
                       4.37967000E+00])),
        transport=gas_transport(geom='atom',
                                diam=3.33,
                                well_depth=136.5))

species(name=u'He',
        atoms='He:1',
        thermo=(NASA([200.00, 1000.00],
                     [ 2.50000000E+00,  0.00000000E+00,  0.00000000E+00,
                       0.00000000E+00,  0.00000000E+00, -7.45375000E+02,
                       9.28724000E-01]),
                NASA([1000.00, 6000.00],
                     [ 2.50000000E+00,  0.00000000E+00,  0.00000000E+00,
                       0.00000000E+00,  0.00000000E+00, -7.45375000E+02,
                       9.28724000E-01])),
        transport=gas_transport(geom='atom',
                                diam=2.576,
                                well_depth=10.2))

species(name=u'Ne',
        atoms='Ne:1',
        thermo=(NASA([200.00, 1000.00],
                     [ 2.50000000E+00,  0.00000000E+00,  0.00000000E+00,
                       0.00000000E+00,  0.00000000E+00, -7.45375000E+02,
                       3.35532000E+00]),
                NASA([1000.00, 6000.00],
                     [ 2.50000000E+00,  0.00000000E+00,  0.00000000E+00,
                       0.00000000E+00,  0.00000000E+00, -7.45375000E+02,
                       3.35532000E+00])),
        transport=gas_transport(geom='atom',
                                diam=3.758,
                                well_depth=148.6))

species(name=u'N2',
        atoms='N:2',
        thermo=(NASA([200.00, 1000.00],
                     [ 3.53101000E+00, -1.23661000E-04, -5.02999000E-07,
                       2.43531000E-09, -1.40881000E-12, -1.04698000E+03,
                       2.96747000E+00]),
                NASA([1000.00, 6000.00],
                     [ 2.95258000E+00,  1.39690000E-03, -4.92632000E-07,
                       7.86010000E-11, -4.60755000E-15, -9.23949000E+02,
                       5.87189000E+00])),
        transport=gas_transport(geom='linear',
                                diam=3.621,
                                well_depth=97.53,
                                polar=1.76,
                                rot_relax=4.0))

species(name=u'C2H4(2)',
        atoms='H:4 C:2',
        thermo=(NASA([100.00, 979.36],
                     [ 3.97471606E+00, -4.75844285E-03,  4.16783770E-05,
                      -4.51392516E-08,  1.54224761E-11,  4.91540746E+03,
                       3.62430844E+00]),
                NASA([979.36, 5000.00],
                     [ 3.55660610E+00,  1.10627464E-02, -4.17019079E-06,
                       7.85586770E-10, -5.70060829E-14,  4.32046489E+03,
                       2.17719479E+00])),
        transport=gas_transport(geom='nonlinear',
                                diam=3.971,
                                well_depth=280.8,
                                rot_relax=1.5))

species(name=u'C4H8-1(3)',
        atoms='H:8 C:4',
        thermo=(NASA([100.00, 1007.28],
                     [ 2.58772906E+00,  2.32777969E-02,  1.93412349E-05,
                      -3.55496333E-08,  1.36906009E-11, -1.91872926E+03,
                       1.45750618E+01]),
                NASA([1007.28, 5000.00],
                     [ 7.20517168E+00,  2.36361568E-02, -9.03150028E-06,
                       1.65392666E-09, -1.16019260E-13, -3.79733937E+03,
                      -1.24426257E+01])),
        transport=gas_transport(geom='nonlinear',
                                diam=5.176,
                                well_depth=357.002,
                                rot_relax=1.0))

species(name=u'C4H8-2(4)',
        atoms='H:8 C:4',
        thermo=(NASA([100.00, 1157.79],
                     [ 2.51998327E+00,  2.76812799E-02,  9.43783469E-07,
                      -1.25009101E-08,  4.67144666E-12, -3.34374767E+03,
                       1.30195623E+01]),
                NASA([1157.79, 5000.00],
                     [ 6.04225708E+00,  2.60072350E-02, -1.04843374E-05,
                       1.90880922E-09, -1.30600505E-13, -4.86276511E+03,
                      -7.52715109E+00])),
        transport=gas_transport(geom='nonlinear',
                                diam=5.289,
                                well_depth=359.053))

species(name=u'C4H6(7)',
        atoms='H:6 C:4',
        thermo=(NASA([100.00, 946.05],
                     [ 2.80599310E+00,  1.02584471E-02,  6.17260255E-05,
                      -9.01642687E-08,  3.59116961E-11,  1.16584972E+04,
                       1.20621434E+01]),
                NASA([946.05, 5000.00],
                     [ 1.24693720E+01,  1.00553901E-02, -2.41206872E-06,
                       4.57077303E-10, -3.93160571E-14,  8.01077795E+03,
                      -4.36374720E+01])),
        transport=gas_transport(geom='nonlinear',
                                diam=5.18,
                                well_depth=357.002,
                                rot_relax=1.0))

species(name=u'C4H6a(98)',
        atoms='H:6 C:4',
        thermo=(NASA([100.00, 950.38],
                     [ 3.41327601E+00, -4.60830638E-03,  9.57205603E-05,
                      -1.18800574E-07,  4.44495312E-11,  1.74039828E+04,
                       1.01517556E+01]),
                NASA([950.38, 5000.00],
                     [ 9.72156091E+00,  1.36879055E-02, -3.93842260E-06,
                       7.58710118E-10, -6.16013131E-14,  1.41795804E+04,
                      -3.06164436E+01])),
        transport=gas_transport(geom='nonlinear',
                                diam=5.503,
                                well_depth=381.31))

species(name=u'C6H10(100)',
        atoms='H:10 C:6',
        thermo=(NASA([100.00, 969.70],
                     [ 2.39493639E+00,  1.31308716E-02,  1.02019898E-04,
                      -1.35266841E-07,  5.06735576E-11, -2.55363631E+03,
                       1.63461006E+01]),
                NASA([969.70, 5000.00],
                     [ 1.20193596E+01,  2.96991246E-02, -1.06504175E-05,
                       2.03502649E-09, -1.52378829E-13, -7.06570658E+03,
                      -4.34309725E+01])),
        transport=gas_transport(geom='nonlinear',
                                diam=6.352,
                                well_depth=436.658))

species(name=u'C6H10(141)',
        atoms='H:10 C:6',
        thermo=(NASA([100.00, 1020.63],
                     [ 9.97427413E-01,  5.59777045E-02, -2.05880600E-05,
                      -1.17182304E-08,  8.13452041E-12,  6.30749855E+03,
                       2.38941836E+01]),
                NASA([1020.63, 5000.00],
                     [ 1.33828218E+01,  2.83661253E-02, -1.07663110E-05,
                       1.95749020E-09, -1.36589418E-13,  2.68926840E+03,
                      -4.14511818E+01])),
        transport=gas_transport(geom='nonlinear',
                                diam=5.673,
                                well_depth=388.08))

species(name=u'C6H10(173)',
        atoms='H:10 C:6',
        thermo=(NASA([100.00, 1020.63],
                     [ 9.97427413E-01,  5.59777045E-02, -2.05880600E-05,
                      -1.17182304E-08,  8.13452041E-12,  6.30749855E+03,
                       2.38941836E+01]),
                NASA([1020.63, 5000.00],
                     [ 1.33828218E+01,  2.83661253E-02, -1.07663110E-05,
                       1.95749020E-09, -1.36589418E-13,  2.68926840E+03,
                      -4.14511818E+01])),
        transport=gas_transport(geom='nonlinear',
                                diam=5.673,
                                well_depth=388.08))

species(name=u'C6H10(346)',
        atoms='H:10 C:6',
        thermo=(NASA([100.00, 1057.19],
                     [ 1.32003537E+00,  4.84544999E-02, -5.79624644E-06,
                      -2.18049081E-08,  1.02541120E-11,  5.44649962E+03,
                       2.34886632E+01]),
                NASA([1057.19, 5000.00],
                     [ 1.18393426E+01,  3.09141412E-02, -1.24938257E-05,
                       2.33617137E-09, -1.64723228E-13,  1.97834329E+03,
                      -3.37293579E+01])),
        transport=gas_transport(geom='nonlinear',
                                diam=5.747,
                                well_depth=398.446))

species(name=u'C6H10(376)',
        atoms='H:10 C:6',
        thermo=(NASA([100.00, 1057.19],
                     [ 1.32003537E+00,  4.84544999E-02, -5.79624644E-06,
                      -2.18049081E-08,  1.02541120E-11,  5.44649962E+03,
                       2.34886632E+01]),
                NASA([1057.19, 5000.00],
                     [ 1.18393426E+01,  3.09141412E-02, -1.24938257E-05,
                       2.33617137E-09, -1.64723228E-13,  1.97834329E+03,
                      -3.37293579E+01])),
        transport=gas_transport(geom='nonlinear',
                                diam=5.747,
                                well_depth=398.446))

species(name=u'C6H10(857)',
        atoms='H:10 C:6',
        thermo=(NASA([100.00, 1057.19],
                     [ 1.32003537E+00,  4.84544999E-02, -5.79624644E-06,
                      -2.18049081E-08,  1.02541120E-11,  5.39114554E+03,
                       2.15965599E+01]),
                NASA([1057.19, 5000.00],
                     [ 1.18393426E+01,  3.09141412E-02, -1.24938257E-05,
                       2.33617137E-09, -1.64723228E-13,  1.92298921E+03,
                      -3.56214612E+01])),
        transport=gas_transport(geom='nonlinear',
                                diam=5.857,
                                well_depth=399.82))

species(name=u'S(1236)',
        atoms='H:10 C:6',
        thermo=(NASA([100.00, 2066.82],
                     [ 1.96487466E+00,  5.04479236E-02, -2.24823496E-05,
                       3.26198053E-09,  2.73496389E-15,  6.31812967E+03,
                       1.91308704E+01]),
                NASA([2066.82, 5000.00],
                     [ 2.01362223E+01,  2.52311191E-02, -1.14030833E-05,
                       2.01775234E-09, -1.28532875E-13, -3.31865112E+03,
                      -8.68696867E+01])),
        transport=gas_transport(geom='nonlinear',
                                diam=5.747,
                                well_depth=398.446))

species(name=u'S(1760)',
        atoms='H:10 C:6',
        thermo=(NASA([100.00, 1020.63],
                     [ 9.97427413E-01,  5.59777045E-02, -2.05880600E-05,
                      -1.17182304E-08,  8.13452041E-12,  2.84333919E+03,
                       1.95659973E+01]),
                NASA([1020.63, 5000.00],
                     [ 1.33828218E+01,  2.83661253E-02, -1.07663110E-05,
                       1.95749020E-09, -1.36589418E-13, -7.74890955E+02,
                      -4.57793681E+01])),
        transport=gas_transport(geom='nonlinear',
                                diam=5.698,
                                well_depth=390.841))

species(name=u'X(1)',
        atoms='X:1',
        thermo=(NASA([100.00, 1554.80],
                     [ 7.10139498E-03, -4.25619522E-05,  8.98533016E-08,
                      -7.80193649E-11,  2.32465471E-14, -8.76101712E-01,
                      -3.11211229E-02]),
                NASA([1554.80, 5000.00],
                     [ 1.60299900E-01, -2.52235409E-04,  1.14181275E-07,
                      -1.21471653E-11,  3.85790025E-16, -7.08100885E+01,
                      -9.09527530E-01])))

species(name=u'HX(5)',
        atoms='H:1 X:1',
        thermo=(NASA([100.00, 952.91],
                     [-3.80965452E-01,  5.47228709E-03,  2.60912778E-06,
                      -9.64961980E-09,  4.63946753E-12, -1.52247967E+04,
                       1.01725550E+00]),
                NASA([952.91, 5000.00],
                     [ 2.80339655E+00, -5.41047017E-04,  4.99507978E-07,
                      -7.54963647E-11,  3.06772366E-15, -1.61655461E+04,
                      -1.59436787E+01])))

species(name=u'C2H3X(27)',
        atoms='H:3 C:2 X:1',
        thermo=(NASA([100.00, 928.62],
                     [ 3.83091018E+00, -8.76381562E-03,  6.97956896E-05,
                      -8.67969174E-08,  3.33218121E-11,  3.05085711E+03,
                      -1.81151753E+01]),
                NASA([928.62, 5000.00],
                     [ 8.78054562E+00,  1.92497720E-03,  8.25825014E-07,
                      -1.63749818E-10,  5.71728318E-15,  7.51453981E+02,
                      -4.90588618E+01])))

species(name=u'C2H5X(30)',
        atoms='H:5 C:2 X:1',
        thermo=(NASA([100.00, 803.81],
                     [-1.64625424E+00,  3.89626488E-02, -4.31128887E-05,
                       2.97076939E-08, -8.80222915E-12, -8.65333455E+03,
                       9.27323637E+00]),
                NASA([803.81, 5000.00],
                     [ 1.97598112E+00,  2.09382766E-02, -9.47916922E-06,
                       1.81392948E-09, -1.27206354E-13, -9.23568333E+03,
                      -7.41107956E+00])))

species(name=u'C4H7X(31)',
        atoms='H:7 C:4 X:1',
        thermo=(NASA([100.00, 971.02],
                     [ 2.64365035E+00,  1.79007589E-02,  4.24443189E-05,
                      -6.44028479E-08,  2.49593993E-11, -4.44769046E+03,
                      -6.69991651E+00]),
                NASA([971.02, 5000.00],
                     [ 9.25871667E+00,  2.04064152E-02, -7.39143670E-06,
                       1.37021231E-09, -9.94133357E-14, -7.13517459E+03,
                      -4.56426102E+01])))

species(name=u'C4H7X(32)',
        atoms='H:7 C:4 X:1',
        thermo=(NASA([100.00, 986.67],
                     [ 2.45798205E+00,  2.47217336E-02,  2.01285964E-05,
                      -4.02735564E-08,  1.62485845E-11,  3.95449659E+03,
                      -5.12991781E+00]),
                NASA([986.67, 5000.00],
                     [ 8.87898065E+00,  2.09043993E-02, -7.83851223E-06,
                       1.44076477E-09, -1.02346878E-13,  1.60614048E+03,
                      -4.15007572E+01])))

species(name=u'C4H7X(33)',
        atoms='H:7 C:4 X:1',
        thermo=(NASA([100.00, 965.06],
                     [ 2.56877619E+00,  1.97500674E-02,  3.72961301E-05,
                      -6.04017092E-08,  2.39989018E-11, -4.71911132E+03,
                      -8.56564322E+00]),
                NASA([965.06, 5000.00],
                     [ 9.89778724E+00,  1.86142959E-02, -6.38884453E-06,
                       1.17309353E-09, -8.55406646E-14, -7.49540252E+03,
                      -5.07182348E+01])))

species(name=u'C4H7X(34)',
        atoms='H:7 C:4 X:1',
        thermo=(NASA([100.00, 949.35],
                     [ 2.54254539E+00,  1.77389010E-02,  4.93877612E-05,
                      -7.72878178E-08,  3.10660019E-11, -3.49347801E+03,
                      -8.46783968E+00]),
                NASA([949.35, 5000.00],
                     [ 1.15220223E+01,  1.60005944E-02, -4.89823595E-06,
                       8.83972924E-10, -6.63710570E-14, -6.82501035E+03,
                      -5.98888028E+01])))

species(name=u'C4H9X(44)',
        atoms='H:9 C:4 X:1',
        thermo=(NASA([100.00, 1009.34],
                     [ 2.45382734E+00,  2.40994657E-02,  3.11010256E-05,
                      -4.95699577E-08,  1.85293661E-11, -1.27914648E+04,
                      -3.52847415E+00]),
                NASA([1009.34, 5000.00],
                     [ 7.52084135E+00,  2.82413531E-02, -1.10515535E-05,
                       2.04772333E-09, -1.44617914E-13, -1.50481862E+04,
                      -3.41331625E+01])))

species(name=u'C4H9X(45)',
        atoms='H:9 C:4 X:1',
        thermo=(NASA([100.00, 993.09],
                     [ 2.22649262E+00,  2.86530428E-02,  2.37814781E-05,
                      -4.60601877E-08,  1.82913065E-11, -1.15084499E+04,
                      -3.55141667E+00]),
                NASA([993.09, 5000.00],
                     [ 9.09063018E+00,  2.59568873E-02, -9.83403420E-06,
                       1.80637207E-09, -1.27731480E-13, -1.41021713E+04,
                      -4.28140480E+01])))

species(name=u'C2H2X(49)',
        atoms='H:2 C:2 X:1',
        thermo=(NASA([100.00, 1146.89],
                     [-1.35665997E+00,  2.85338019E-02, -3.11240758E-05,
                       1.70134067E-08, -3.63322671E-12,  5.53207047E+02,
                       3.79543665E+00]),
                NASA([1146.89, 5000.00],
                     [ 4.86807469E+00,  6.82428196E-03, -2.73110334E-06,
                       5.09415334E-10, -3.57467832E-14, -8.74639236E+02,
                      -2.70885611E+01])))

species(name=u'C6H11X(51)',
        atoms='H:11 C:6 X:1',
        thermo=(NASA([100.00, 968.49],
                     [ 1.21380653E+00,  4.74385684E-02,  1.70473783E-05,
                      -5.31710482E-08,  2.32909786E-11, -3.05317524E+03,
                       5.18267936E+00]),
                NASA([968.49, 5000.00],
                     [ 1.29066493E+01,  3.25069116E-02, -1.14963418E-05,
                       2.04429996E-09, -1.42970869E-13, -6.88267228E+03,
                      -5.89317378E+01])))

species(name=u'C6H11X(52)',
        atoms='H:11 C:6 X:1',
        thermo=(NASA([100.00, 1026.60],
                     [ 1.36763236E+00,  4.47159424E-02,  1.77339332E-05,
                      -4.72504607E-08,  1.90469768E-11, -4.32738971E+03,
                       5.40777780E+00]),
                NASA([1026.60, 5000.00],
                     [ 1.14239279E+01,  3.61439866E-02, -1.44679608E-05,
                       2.70636835E-09, -1.91760853E-13, -8.00520594E+03,
                      -5.12283432E+01])))

species(name=u'C6H11X(81)',
        atoms='H:11 C:6 X:1',
        thermo=(NASA([100.00, 978.82],
                     [ 1.21350179E+00,  4.51044751E-02,  2.71681227E-05,
                      -6.49621007E-08,  2.73934404E-11, -1.13557431E+04,
                       1.12046116E+00]),
                NASA([978.82, 5000.00],
                     [ 1.41717238E+01,  3.12188110E-02, -1.14245273E-05,
                       2.10168117E-09, -1.50642450E-13, -1.57640473E+04,
                      -7.06783513E+01])))

species(name=u'C4H7X(136)',
        atoms='H:7 C:4 X:1',
        thermo=(NASA([100.00, 947.75],
                     [ 2.86440387E+00,  8.12954614E-03,  7.59606536E-05,
                      -1.03618267E-07,  4.00694538E-11, -4.42884696E+03,
                      -2.40038485E+00]),
                NASA([947.75, 5000.00],
                     [ 1.10489656E+01,  1.63914163E-02, -4.86280875E-06,
                       8.89632629E-10, -6.85128174E-14, -7.90266316E+03,
                      -5.15890409E+01])))

species(name=u'SX(137)',
        atoms='H:11 C:6 X:1',
        thermo=(NASA([100.00, 1049.69],
                     [ 1.36930266E+00,  4.38979115E-02,  2.01275568E-05,
                      -4.90824503E-08,  1.92320209E-11, -3.69069890E+03,
                       5.21493675E+00]),
                NASA([1049.69, 5000.00],
                     [ 1.20673516E+01,  3.58058064E-02, -1.50008038E-05,
                       2.88254699E-09, -2.07040682E-13, -7.73672269E+03,
                      -5.54902255E+01])))

species(name=u'SX(168)',
        atoms='H:11 C:6 X:1',
        thermo=(NASA([100.00, 2550.55],
                     [ 1.24292200E+00,  6.01193450E-02, -3.21889901E-05,
                       7.64489414E-09, -6.96875236E-13, -4.41131995E+03,
                       2.83476651E+00]),
                NASA([2550.55, 5000.00],
                     [ 2.69737903E+01,  1.97651878E-02, -8.45594911E-06,
                       1.44140568E-09, -8.88104742E-14, -1.75366607E+04,
                      -1.45393387E+02])))

species(name=u'SX(212)',
        atoms='H:11 C:6 X:1',
        thermo=(NASA([100.00, 1001.22],
                     [ 2.75711518E+00,  4.25432105E-03,  1.31527997E-04,
                      -1.56207870E-07,  5.46604582E-11, -1.40560250E+04,
                      -2.70243051E+00]),
                NASA([1001.22, 5000.00],
                     [ 8.04002917E+00,  4.35427657E-02, -1.78139373E-05,
                       3.47927742E-09, -2.56113687E-13, -1.81409891E+04,
                      -4.33128913E+01])))

species(name=u'SX(248)',
        atoms='H:11 C:6 X:1',
        thermo=(NASA([100.00, 2179.95],
                     [ 1.88396133E+00,  5.43303876E-02, -2.43312950E-05,
                       3.91593164E-09, -1.13799029E-13, -5.74107519E+03,
                       1.45330847E+00]),
                NASA([2179.95, 5000.00],
                     [ 2.29310250E+01,  2.54338008E-02, -1.11380052E-05,
                       1.92715789E-09, -1.20358042E-13, -1.72275984E+04,
                      -1.21787406E+02])))

species(name=u'SX(286)',
        atoms='H:11 C:6 X:1',
        thermo=(NASA([100.00, 2756.05],
                     [ 3.44913502E+00,  5.19590755E-02, -2.28606735E-05,
                       3.49015591E-09, -1.25540082E-13, -5.85718875E+03,
                      -8.02191212E+00]),
                NASA([2756.05, 5000.00],
                     [ 5.22081606E+01, -3.67799811E-03, -8.14139767E-07,
                       1.49102705E-10, -3.15313692E-15, -3.84796589E+04,
                      -3.03112222E+02])))

species(name=u'SX(287)',
        atoms='H:11 C:6 X:1',
        thermo=(NASA([100.00, 529.55],
                     [ 1.40520086E+00,  6.50189191E-02, -3.38020323E-05,
                      -1.92056841E-08,  2.82138410E-11, -3.38523064E+03,
                       9.80148307E-01]),
                NASA([529.55, 5000.00],
                     [ 4.61138528E+00,  5.10924822E-02, -2.35065307E-05,
                       4.53402054E-09, -3.20228007E-13, -3.86909930E+03,
                      -1.38120737E+01])))

species(name=u'SX(347)',
        atoms='H:11 C:6 X:1',
        thermo=(NASA([100.00, 1021.29],
                     [ 1.34823251E+00,  4.49172343E-02,  1.76151869E-05,
                      -4.78984165E-08,  1.95062653E-11, -4.37171407E+03,
                       4.75789439E+00]),
                NASA([1021.29, 5000.00],
                     [ 1.18283961E+01,  3.51070812E-02, -1.38546841E-05,
                       2.59222616E-09, -1.84231983E-13, -8.14140683E+03,
                      -5.39990137E+01])))

species(name=u'SX(348)',
        atoms='H:11 C:6 X:1',
        thermo=(NASA([100.00, 1514.36],
                     [ 1.09476936E+00,  5.76778974E-02, -2.44667840E-05,
                       1.17624093E-09,  1.00232441E-12, -1.21148238E+04,
                       4.81056244E-01]),
                NASA([1514.36, 5000.00],
                     [ 1.39159755E+01,  3.64488917E-02, -1.59559434E-05,
                       2.93981851E-09, -1.98494773E-13, -1.74469812E+04,
                      -7.14786750E+01])))

species(name=u'SX(399)',
        atoms='H:11 C:6 X:1',
        thermo=(NASA([100.00, 1293.39],
                     [ 1.45046737E+00,  4.82608537E-02, -2.43997244E-06,
                      -1.72969624E-08,  6.18915590E-12, -1.28048917E+04,
                       1.13022348E-01]),
                NASA([1293.39, 5000.00],
                     [ 1.03023185E+01,  4.16622122E-02, -1.88831866E-05,
                       3.59856439E-09, -2.50415887E-13, -1.68325248E+04,
                      -5.15875336E+01])))

species(name=u'SX(400)',
        atoms='H:11 C:6 X:1',
        thermo=(NASA([100.00, 1529.04],
                     [ 1.25767714E+00,  5.47396328E-02, -2.21494562E-05,
                       7.79936925E-10,  9.51857561E-13, -3.93562017E+03,
                       3.96761810E+00]),
                NASA([1529.04, 5000.00],
                     [ 1.26947972E+01,  3.63748246E-02, -1.54689745E-05,
                       2.80958228E-09, -1.88078158E-13, -8.78392636E+03,
                      -6.04835113E+01])))

species(name=u'SX(520)',
        atoms='H:11 C:6 X:1',
        thermo=(NASA([100.00, 1065.56],
                     [ 1.32455571E+00,  4.61970601E-02,  1.13666080E-05,
                      -3.90868737E-08,  1.55976262E-11, -4.24955384E+03,
                       1.47444032E+00]),
                NASA([1065.56, 5000.00],
                     [ 1.16576042E+01,  3.62257533E-02, -1.51635796E-05,
                       2.89216282E-09, -2.06103158E-13, -8.08767969E+03,
                      -5.67095209E+01])))

species(name=u'SX(521)',
        atoms='H:11 C:6 X:1',
        thermo=(NASA([100.00, 2490.92],
                     [ 1.53903955E+00,  6.06450523E-02, -3.22414360E-05,
                       7.55546424E-09, -6.82585052E-13, -1.10837453E+04,
                      -3.20756326E+00]),
                NASA([2490.92, 5000.00],
                     [ 2.27281011E+01,  2.66188615E-02, -1.17512354E-05,
                       2.07147527E-09, -1.32185337E-13, -2.16397627E+04,
                      -1.24770710E+02])))

species(name=u'SX(577)',
        atoms='H:11 C:6 X:1',
        thermo=(NASA([100.00, 1293.39],
                     [ 1.45046737E+00,  4.82608537E-02, -2.43997244E-06,
                      -1.72969624E-08,  6.18915590E-12, -1.28048917E+04,
                       1.13022348E-01]),
                NASA([1293.39, 5000.00],
                     [ 1.03023185E+01,  4.16622122E-02, -1.88831866E-05,
                       3.59856439E-09, -2.50415887E-13, -1.68325248E+04,
                      -5.15875336E+01])))

species(name=u'SX(578)',
        atoms='H:11 C:6 X:1',
        thermo=(NASA([100.00, 1506.11],
                     [ 1.37853063E+00,  5.30181585E-02, -1.70188377E-05,
                      -3.56336429E-09,  2.02111698E-12, -5.09130868E+03,
                       3.27570819E+00]),
                NASA([1506.11, 5000.00],
                     [ 1.28722969E+01,  3.77672686E-02, -1.70426917E-05,
                       3.18105531E-09, -2.16152072E-13, -1.02859249E+04,
                      -6.26334955E+01])))

species(name=u'SX(769)',
        atoms='H:11 C:6 X:1',
        thermo=(NASA([100.00, 1313.28],
                     [ 1.23785788E+00,  5.27318719E-02, -1.35351433E-05,
                      -8.68794192E-09,  3.97084803E-12, -1.22376449E+04,
                      -7.25286865E-01]),
                NASA([1313.28, 5000.00],
                     [ 1.16769007E+01,  3.83859349E-02, -1.70799036E-05,
                       3.22888689E-09, -2.23658139E-13, -1.64842699E+04,
                      -5.96615398E+01])))

species(name=u'SX(812)',
        atoms='H:11 C:6 X:1',
        thermo=(NASA([100.00, 1588.09],
                     [ 1.80801983E+00,  4.84936531E-02, -8.21840880E-06,
                      -8.71203809E-09,  2.90896515E-12, -1.24891504E+04,
                      -2.49919696E+00]),
                NASA([1588.09, 5000.00],
                     [ 1.26118955E+01,  4.07169524E-02, -1.92305352E-05,