units(length='cm', time='s', quantity='mol', act_energy='kcal/mol')

ideal_gas(name='gas',
          elements="H D T C Ci O Oi N Ne Ar He Si S Cl X",
          species="""n-heptane   Ar          He          Ne
                     N2          C2H4(2)     C4H8-1(3)   C4H8-2(4)
                     C4H6(7)     C6H8(9)     C3H6(24)    H2(47)
                     S(200)      S(267)      C8H12(280)  C6H10(353)
                     C8H12(355)  C7H12(429)  C5H8c(437)  C7H10(441)
                     C7H12(457)  C6H10(460)  C5H8g(517)  S(531)
                     S(534)      C4H8(544)   C2H6(546)   C7H12(570)
                     S(1310)     S(1408)     S(1655)     C3H8(2410)
                     S(2516)     S(3012)""",
          reactions='gas-*',
          transport='Mix',
          initial_state=state(temperature=300.0, pressure=OneAtm))

ideal_interface(name='surface1',
                elements="H D T C Ci O Oi N Ne Ar He Si S Cl X",
                species="""X(1)        HX(5)       C2H3X(27)   allylX(28)
                          CH3X(29)    C2H5X(30)   C4H7X(31)   C4H7X(32)
                          C4H7X(33)   C4H7X(34)   C3H5X(35)   C4H7X(36)
                          C4H7X(37)   C4H5X(56)   C4H5X(57)   C6H9X(65)
                          C6H9X(66)   C6H9X(72)   C8H11X(85)  C8H11X(86)
                          C6H7X(94)   C6H7X(95)   C6H7X(96)   SX(109)
                          SX(132)     C6H7X(145)  C7H9X(193)  C6H9X(218)
                          SX(220)     SX(221)     SX(222)     SX(223)
                          SX(226)     SX(249)     SX(252)     SX(260)
                          SX(264)     SX(265)     SX(266)     C5H7X(273)
                          SX(300)     SX(301)     C6H9X(371)  C3H5X(403)
                          C5H9X(405)  SX(410)     SX(411)     SX(415)
                          C5H9X(433)  C6H9X(580)  C5H7X(672)  C5H7X(698)
                          C5H7X(699)  C5H7X(730)  C5H7X(731)  C5H7X(732)
                          C7H9X(858)  C7H9X(876)  C7H9X(877)  C5H7X(878)
                          C7H9X(908)  C7H9X(909)  C7H9X(910)  C7H9X(912)
                          SX(1122)    SX(1123)    SX(1124)    SX(1125)
                          SX(1296)    SX(1680)    SX(1681)    SX(1797)
                          SX(1826)    SX(1892)    SX(1927)    SX(1928)
                          SX(2079)    SX(2279)    SX(2288)    SX(2299)
                          SX(2300)    SX(2302)    SX(2952)    SX(2953)
                          SX(2955)    SX(2956)    SX(2957)    SX(2959)
                          SX(3022)    SX(3081)    SX(3137)    SX(3139)
                          SX(3258)    SX(3855)""",
                site_density=2.72e-09,
                phases="gas",
          reactions='surface1-*',
                initial_state=state(temperature=300.0, pressure=OneAtm))

#-------------------------------------------------------------------------------
# Element data
#-------------------------------------------------------------------------------

element(symbol=u'X', atomic_mass=195.083)
element(symbol=u'Ci', atomic_mass=13.003)
element(symbol=u'D', atomic_mass=2.014)
element(symbol=u'Oi', atomic_mass=18.0)
element(symbol=u'T', atomic_mass=3.016)
#-------------------------------------------------------------------------------
# Species data
#-------------------------------------------------------------------------------

species(name=u'n-heptane',
        atoms='H:16 C:7',
        thermo=(NASA([100.00, 1262.73],
                     [-2.91681405E-03,  7.69373649E-02, -3.48025563E-05,
                       1.86095180E-09,  2.01573617E-12, -2.57829342E+04,
                       3.00312148E+01]),
                NASA([1262.73, 5000.00],
                     [ 1.38377915E+01,  4.85945016E-02, -1.95474548E-05,
                       3.52837178E-09, -2.39064676E-13, -3.05141556E+04,
                      -4.48642836E+01])),
        transport=gas_transport(geom='nonlinear',
                                diam=6.366,
                                well_depth=402.997))

species(name=u'Ar',
        atoms='Ar:1',
        thermo=(NASA([200.00, 1000.00],
                     [ 2.50000000E+00,  0.00000000E+00,  0.00000000E+00,
                       0.00000000E+00,  0.00000000E+00, -7.45375000E+02,
                       4.37967000E+00]),
                NASA([1000.00, 6000.00],
                     [ 2.50000000E+00,  0.00000000E+00,  0.00000000E+00,
                       0.00000000E+00,  0.00000000E+00, -7.45375000E+02,
                       4.37967000E+00])),
        transport=gas_transport(geom='atom',
                                diam=3.33,
                                well_depth=136.5))

species(name=u'He',
        atoms='He:1',
        thermo=(NASA([200.00, 1000.00],
                     [ 2.50000000E+00,  0.00000000E+00,  0.00000000E+00,
                       0.00000000E+00,  0.00000000E+00, -7.45375000E+02,
                       9.28724000E-01]),
                NASA([1000.00, 6000.00],
                     [ 2.50000000E+00,  0.00000000E+00,  0.00000000E+00,
                       0.00000000E+00,  0.00000000E+00, -7.45375000E+02,
                       9.28724000E-01])),
        transport=gas_transport(geom='atom',
                                diam=2.576,
                                well_depth=10.2))

species(name=u'Ne',
        atoms='Ne:1',
        thermo=(NASA([200.00, 1000.00],
                     [ 2.50000000E+00,  0.00000000E+00,  0.00000000E+00,
                       0.00000000E+00,  0.00000000E+00, -7.45375000E+02,
                       3.35532000E+00]),
                NASA([1000.00, 6000.00],
                     [ 2.50000000E+00,  0.00000000E+00,  0.00000000E+00,
                       0.00000000E+00,  0.00000000E+00, -7.45375000E+02,
                       3.35532000E+00])),
        transport=gas_transport(geom='atom',
                                diam=3.758,
                                well_depth=148.6))

species(name=u'N2',
        atoms='N:2',
        thermo=(NASA([200.00, 1000.00],
                     [ 3.53101000E+00, -1.23661000E-04, -5.02999000E-07,
                       2.43531000E-09, -1.40881000E-12, -1.04698000E+03,
                       2.96747000E+00]),
                NASA([1000.00, 6000.00],
                     [ 2.95258000E+00,  1.39690000E-03, -4.92632000E-07,
                       7.86010000E-11, -4.60755000E-15, -9.23949000E+02,
                       5.87189000E+00])),
        transport=gas_transport(geom='linear',
                                diam=3.621,
                                well_depth=97.53,
                                polar=1.76,
                                rot_relax=4.0))

species(name=u'C2H4(2)',
        atoms='H:4 C:2',
        thermo=(NASA([100.00, 979.36],
                     [ 3.97471606E+00, -4.75844285E-03,  4.16783770E-05,
                      -4.51392516E-08,  1.54224761E-11,  4.91540746E+03,
                       3.62430844E+00]),
                NASA([979.36, 5000.00],
                     [ 3.55660610E+00,  1.10627464E-02, -4.17019079E-06,
                       7.85586770E-10, -5.70060829E-14,  4.32046489E+03,
                       2.17719479E+00])),
        transport=gas_transport(geom='nonlinear',
                                diam=3.971,
                                well_depth=280.8,
                                rot_relax=1.5))

species(name=u'C4H8-1(3)',
        atoms='H:8 C:4',
        thermo=(NASA([100.00, 1007.28],
                     [ 2.58772906E+00,  2.32777969E-02,  1.93412349E-05,
                      -3.55496333E-08,  1.36906009E-11, -1.91872926E+03,
                       1.45750618E+01]),
                NASA([1007.28, 5000.00],
                     [ 7.20517168E+00,  2.36361568E-02, -9.03150028E-06,
                       1.65392666E-09, -1.16019260E-13, -3.79733937E+03,
                      -1.24426257E+01])),
        transport=gas_transport(geom='nonlinear',
                                diam=5.176,
                                well_depth=357.002,
                                rot_relax=1.0))

species(name=u'C4H8-2(4)',
        atoms='H:8 C:4',
        thermo=(NASA([100.00, 1157.79],
                     [ 2.51998327E+00,  2.76812799E-02,  9.43783469E-07,
                      -1.25009101E-08,  4.67144666E-12, -3.34374767E+03,
                       1.30195623E+01]),
                NASA([1157.79, 5000.00],
                     [ 6.04225708E+00,  2.60072350E-02, -1.04843374E-05,
                       1.90880922E-09, -1.30600505E-13, -4.86276511E+03,
                      -7.52715109E+00])),
        transport=gas_transport(geom='nonlinear',
                                diam=5.289,
                                well_depth=359.053))

species(name=u'C4H6(7)',
        atoms='H:6 C:4',
        thermo=(NASA([100.00, 946.05],
                     [ 2.80599310E+00,  1.02584471E-02,  6.17260255E-05,
                      -9.01642687E-08,  3.59116961E-11,  1.16584972E+04,
                       1.20621434E+01]),
                NASA([946.05, 5000.00],
                     [ 1.24693720E+01,  1.00553901E-02, -2.41206872E-06,
                       4.57077303E-10, -3.93160571E-14,  8.01077795E+03,
                      -4.36374720E+01])),
        transport=gas_transport(geom='nonlinear',
                                diam=5.18,
                                well_depth=357.002,
                                rot_relax=1.0))

species(name=u'C6H8(9)',
        atoms='H:8 C:6',
        thermo=(NASA([100.00, 941.22],
                     [ 1.38427980E+00,  4.14411503E-02,  1.94287417E-05,
                      -6.16688700E-08,  2.86503633E-11,  1.76317461E+04,
                       1.93257509E+01]),
                NASA([941.22, 5000.00],
                     [ 1.69619680E+01,  1.57221707E-02, -4.10118367E-06,
                       6.95736344E-10, -5.26521484E-14,  1.29061672E+04,
                      -6.44097553E+01])),
        transport=gas_transport(geom='nonlinear',
                                diam=5.514,
                                well_depth=396.052))

species(name=u'C3H6(24)',
        atoms='H:6 C:3',
        thermo=(NASA([100.00, 983.75],
                     [ 3.31912102E+00,  8.17958674E-03,  3.34736123E-05,
                      -4.36193684E-08,  1.58213364E-11,  7.49325328E+02,
                       9.54025058E+00]),
                NASA([983.75, 5000.00],
                     [ 5.36755173E+00,  1.70743019E-02, -6.35107626E-06,
                       1.16619529E-09, -8.27620279E-14, -4.87138326E+02,
                      -4.54467529E+00])),
        transport=gas_transport(geom='nonlinear',
                                diam=4.982,
                                well_depth=266.801,
                                rot_relax=1.0))

species(name=u'H2(47)',
        atoms='H:2',
        thermo=(NASA([100.00, 1959.08],
                     [ 3.43536412E+00,  2.12710353E-04, -2.78625043E-07,
                       3.40267167E-10, -7.76031998E-14, -1.03135984E+03,
                      -3.90841732E+00]),
                NASA([1959.08, 5000.00],
                     [ 2.78816583E+00,  5.87640942E-04,  1.59010417E-07,
                      -5.52739026E-11,  4.34310984E-15, -5.96144270E+02,
                       1.12732655E-01])),
        transport=gas_transport(geom='linear',
                                diam=2.833,
                                well_depth=59.7))

species(name=u'S(200)',
        atoms='H:14 C:10',
        thermo=(NASA([100.00, 988.70],
                     [-1.28102885E+00,  9.73401935E-02, -3.96908570E-05,
                      -2.28883979E-08,  1.70599250E-11,  2.01333918E+04,
                       3.80613736E+01]),
                NASA([988.70, 5000.00],
                     [ 2.35618068E+01,  3.86218834E-02, -1.40063814E-05,
                       2.54246809E-09, -1.80004061E-13,  1.31784885E+04,
                      -9.18377566E+01])),
        transport=gas_transport(geom='nonlinear',
                                diam=6.588,
                                well_depth=467.343))

species(name=u'S(267)',
        atoms='H:14 C:10',
        thermo=(NASA([100.00, 988.70],
                     [-1.28102885E+00,  9.73401935E-02, -3.96908570E-05,
                      -2.28883979E-08,  1.70599250E-11,  2.01333918E+04,
                       3.80613736E+01]),
                NASA([988.70, 5000.00],
                     [ 2.35618068E+01,  3.86218834E-02, -1.40063814E-05,
                       2.54246809E-09, -1.80004061E-13,  1.31784885E+04,
                      -9.18377566E+01])),
        transport=gas_transport(geom='nonlinear',
                                diam=6.588,
                                well_depth=467.343))

species(name=u'C8H12(280)',
        atoms='H:12 C:8',
        thermo=(NASA([100.00, 1002.94],
                     [ 1.69489980E-02,  7.28189377E-02, -2.16585698E-05,
                      -2.40807783E-08,  1.44597041E-11,  1.38562447E+04,
                       3.07679077E+01]),
                NASA([1002.94, 5000.00],
                     [ 1.77276883E+01,  3.45993801E-02, -1.29781828E-05,
                       2.37500136E-09, -1.67643536E-13,  8.67334638E+03,
                      -6.28559377E+01])),
        transport=gas_transport(geom='nonlinear',
                                diam=6.098,
                                well_depth=423.433))

species(name=u'C6H10(353)',
        atoms='H:10 C:6',
        thermo=(NASA([100.00, 1036.89],
                     [ 1.50874221E+00,  4.27939676E-02,  1.00407781E-05,
                      -3.76644958E-08,  1.56320088E-11,  7.74480595E+03,
                       2.33493905E+01]),
                NASA([1036.89, 5000.00],
                     [ 1.16601041E+01,  3.10397815E-02, -1.26024374E-05,
                       2.38495409E-09, -1.70150727E-13,  4.16633351E+03,
                      -3.30972272E+01])),
        transport=gas_transport(geom='nonlinear',
                                diam=5.648,
                                well_depth=385.401))

species(name=u'C8H12(355)',
        atoms='H:12 C:8',
        thermo=(NASA([100.00, 1005.34],
                     [ 1.86706594E-01,  6.87128585E-02, -1.27834364E-05,
                      -3.12867866E-08,  1.65065107E-11,  1.40386710E+04,
                       3.13641644E+01]),
                NASA([1005.34, 5000.00],
                     [ 1.70020327E+01,  3.54850644E-02, -1.34528637E-05,
                       2.47700296E-09, -1.75378433E-13,  8.95581482E+03,
                      -5.83136097E+01])),
        transport=gas_transport(geom='nonlinear',
                                diam=6.146,
                                well_depth=430.747))

species(name=u'C7H12(429)',
        atoms='H:12 C:7',
        thermo=(NASA([100.00, 1072.04],
                     [ 7.34369533E-01,  6.01626595E-02, -1.25662011E-05,
                      -1.95620583E-08,  9.83589598E-12,  4.92869796E+03,
                       2.83182178E+01]),
                NASA([1072.04, 5000.00],
                     [ 1.28661532E+01,  3.85784978E-02, -1.55014561E-05,
                       2.86935600E-09, -2.00451385E-13,  9.66694499E+02,
                      -3.74015701E+01])),
        transport=gas_transport(geom='nonlinear',
                                diam=5.964,
                                well_depth=403.169))

species(name=u'C5H8c(437)',
        atoms='H:8 C:5',
        thermo=(NASA([100.00, 1004.86],
                     [ 1.98273955E+00,  3.49998332E-02,  6.98515281E-06,
                      -3.05031334E-08,  1.32246652E-11,  6.96521034E+03,
                       1.60818191E+01]),
                NASA([1004.86, 5000.00],
                     [ 1.01246420E+01,  2.42323877E-02, -9.24886971E-06,
                       1.70115950E-09, -1.20059732E-13,  4.23624320E+03,
                      -2.86745770E+01])),
        transport=gas_transport(geom='nonlinear',
                                diam=5.354,
                                well_depth=369.973))

species(name=u'C7H10(441)',
        atoms='H:10 C:7',
        thermo=(NASA([100.00, 960.58],
                     [ 5.40181259E-01,  6.14551349E-02, -1.12030877E-05,
                      -3.44223146E-08,  1.91302393E-11,  1.31395193E+04,
                       2.36489181E+01]),
                NASA([960.58, 5000.00],
                     [ 1.78943603E+01,  2.43013009E-02, -8.01425042E-06,
                       1.41741320E-09, -1.01048701E-13,  8.18561381E+03,
                      -6.78088657E+01])),
        transport=gas_transport(geom='nonlinear',
                                diam=5.856,
                                well_depth=416.37))

species(name=u'C7H12(457)',
        atoms='H:12 C:7',
        thermo=(NASA([100.00, 1131.99],
                     [ 5.84283501E-01,  6.47608593E-02, -2.67633524E-05,
                      -4.34737531E-09,  4.44182478E-12,  3.09569841E+03,
                       2.80653782E+01]),
                NASA([1131.99, 5000.00],
                     [ 1.29982914E+01,  3.85892124E-02, -1.55301333E-05,
                       2.84554471E-09, -1.96328801E-13, -8.48502352E+02,
                      -3.83715994E+01])),
        transport=gas_transport(geom='nonlinear',
                                diam=5.989,
                                well_depth=405.778))

species(name=u'C6H10(460)',
        atoms='H:10 C:6',
        thermo=(NASA([100.00, 1020.63],
                     [ 9.97427413E-01,  5.59777045E-02, -2.05880600E-05,
                      -1.17182304E-08,  8.13452041E-12,  6.30749855E+03,
                       2.38941836E+01]),
                NASA([1020.63, 5000.00],
                     [ 1.33828218E+01,  2.83661253E-02, -1.07663110E-05,
                       1.95749020E-09, -1.36589418E-13,  2.68926840E+03,
                      -4.14511818E+01])),
        transport=gas_transport(geom='nonlinear',
                                diam=5.673,
                                well_depth=388.08))

species(name=u'C5H8g(517)',
        atoms='H:8 C:5',
        thermo=(NASA([100.00, 1049.25],
                     [ 2.01062155E+00,  3.15407187E-02,  2.07789480E-05,
                      -4.44088985E-08,  1.72419112E-11,  7.01383967E+03,
                       1.65768346E+01]),
                NASA([1049.25, 5000.00],
                     [ 1.14809937E+01,  2.45641673E-02, -1.08867259E-05,
                       2.16707025E-09, -1.59145781E-13,  3.42314914E+03,
                      -3.72078866E+01])),
        transport=gas_transport(geom='nonlinear',
                                diam=5.404,
                                well_depth=377.736))

species(name=u'S(531)',
        atoms='H:16 C:11',
        thermo=(NASA([100.00, 1025.43],
                     [-2.16580454E+00,  1.17805373E-01, -7.17371965E-05,
                       5.89731094E-09,  7.03868955E-12,  1.56429316E+04,
                       4.18388967E+01]),
                NASA([1025.43, 5000.00],
                     [ 2.48394458E+01,  4.66278259E-02, -1.75945644E-05,
                       3.18837308E-09, -2.22176150E-13,  8.30831519E+03,
                      -9.78823400E+01])),
        transport=gas_transport(geom='nonlinear',
                                diam=6.924,
                                well_depth=486.373))

species(name=u'S(534)',
        atoms='H:16 C:11',
        thermo=(NASA([100.00, 1025.43],
                     [-2.16580454E+00,  1.17805373E-01, -7.17371965E-05,
                       5.89731094E-09,  7.03868955E-12,  1.56429316E+04,
                       4.18388967E+01]),
                NASA([1025.43, 5000.00],
                     [ 2.48394458E+01,  4.66278259E-02, -1.75945644E-05,
                       3.18837308E-09, -2.22176150E-13,  8.30831519E+03,
                      -9.78823400E+01])),
        transport=gas_transport(geom='nonlinear',
                                diam=6.924,
                                well_depth=486.373))

species(name=u'C4H8(544)',
        atoms='H:8 C:4',
        thermo=(NASA([100.00, 1061.33],
                     [ 2.52504770E+00,  2.64752782E-02,  7.08359238E-06,
                      -2.07731462E-08,  8.00430055E-12, -4.02607130E+03,
                       1.28857274E+01]),
                NASA([1061.33, 5000.00],
                     [ 6.48672669E+00,  2.49943921E-02, -9.83283171E-06,
                       1.79343299E-09, -1.24008235E-13, -5.62452310E+03,
                      -1.00316397E+01])),
        transport=gas_transport(geom='nonlinear',
                                diam=5.238,
                                well_depth=351.146))

species(name=u'C2H6(546)',
        atoms='H:6 C:2',
        thermo=(NASA([100.00, 1012.42],
                     [ 3.72239291E+00,  1.65083841E-03,  3.44175530E-05,
                      -3.76858229E-08,  1.24450657E-11, -1.15575901E+04,
                       4.68247999E+00]),
                NASA([1012.42, 5000.00],
                     [ 2.82848257E+00,  1.73040568E-02, -6.73334245E-06,
                       1.23742024E-09, -8.65676410E-14, -1.19978080E+04,
                       5.93811707E+00])),
        transport=gas_transport(geom='nonlinear',
                                diam=4.302,
                                well_depth=252.3,
                                rot_relax=1.5))

species(name=u'C7H12(570)',
        atoms='H:12 C:7',
        thermo=(NASA([100.00, 1118.33],
                     [ 7.68978174E-01,  6.04854802E-02, -1.73306455E-05,
                      -1.22231984E-08,  6.75038633E-12,  3.45359644E+03,
                       2.84516256E+01]),
                NASA([1118.33, 5000.00],
                     [ 1.21603701E+01,  3.96569985E-02, -1.61063018E-05,
                       2.97092237E-09, -2.05965892E-13, -3.39677256E+02,
                      -3.33473621E+01])),
        transport=gas_transport(geom='nonlinear',
                                diam=6.037,
                                well_depth=413.195))

species(name=u'S(1310)',
        atoms='H:14 C:9',
        thermo=(NASA([100.00, 1033.76],
                     [-5.65335332E-01,  8.47310838E-02, -3.08977113E-05,
                      -1.77732609E-08,  1.20851089E-11,  1.12058940E+04,
                       3.63093306E+01]),
                NASA([1033.76, 5000.00],
                     [ 1.85555439E+01,  4.28306026E-02, -1.66554054E-05,
                       3.06539570E-09, -2.15112108E-13,  5.53819046E+03,
                      -6.48648690E+01])),
        transport=gas_transport(geom='nonlinear',
                                diam=6.459,
                                well_depth=447.681))

species(name=u'S(1408)',
        atoms='H:14 C:9',
        thermo=(NASA([100.00, 1612.52],
                     [-5.64342106E-01,  9.15768180E-02, -6.19399952E-05,
                       2.14472540E-08, -3.04622983E-12,  1.35961850E+04,
                       3.53208107E+01]),
                NASA([1612.52, 5000.00],
                     [ 1.86032334E+01,  4.40295851E-02, -1.77102356E-05,
                       3.16114133E-09, -2.11187981E-13,  7.41461050E+03,
                      -6.63097534E+01])),
        transport=gas_transport(geom='nonlinear',
                                diam=6.42,
                                well_depth=440.727))

species(name=u'S(1655)',
        atoms='H:12 C:7',
        thermo=(NASA([100.00, 1044.52],
                     [ 6.90395995E-01,  6.05209126E-02, -1.08892064E-05,
                      -2.34065671E-08,  1.17276344E-11,  3.38297442E+03,
                       2.83745539E+01]),
                NASA([1044.52, 5000.00],
                     [ 1.34764727E+01,  3.73792242E-02, -1.47395219E-05,
                       2.71950205E-09, -1.90466279E-13, -6.96739574E+02,
                      -4.06108760E+01])),
        transport=gas_transport(geom='nonlinear',
                                diam=5.989,
                                well_depth=405.778))

species(name=u'C3H8(2410)',
        atoms='H:8 C:3',
        thermo=(NASA([100.00, 989.99],
                     [ 3.06336167E+00,  1.29214561E-02,  3.47032808E-05,
                      -4.70946154E-08,  1.71384141E-11, -1.43905789E+04,
                       1.07835592E+01]),
                NASA([989.99, 5000.00],
                     [ 5.60440043E+00,  2.19528785E-02, -8.22080610E-06,
                       1.50103993E-09, -1.05635358E-13, -1.58394038E+04,
                      -6.22623300E+00])),
        transport=gas_transport(geom='nonlinear',
                                diam=4.982,
                                well_depth=266.801,
                                rot_relax=1.0))

species(name=u'S(2516)',
        atoms='H:14 C:10',
        thermo=(NASA([100.00, 1064.04],
                     [-6.60643484E-01,  8.69906580E-02, -3.11998499E-05,
                      -1.56232936E-08,  1.05247239E-11,  2.12729883E+04,
                       3.70353931E+01]),
                NASA([1064.04, 5000.00],
                     [ 1.76790234E+01,  4.82596725E-02, -1.91910232E-05,
                       3.53767595E-09, -2.46925866E-13,  1.56598495E+04,
                      -6.06181517E+01])),
        transport=gas_transport(geom='nonlinear',
                                diam=6.659,
                                well_depth=477.149))

species(name=u'S(3012)',
        atoms='H:16 C:11',
        thermo=(NASA([100.00, 1497.21],
                     [-2.13105228E+00,  1.19143615E-01, -9.01145994E-05,
                       3.51637799E-08, -5.54491580E-12,  1.98853584E+04,
                       4.42807595E+01]),
                NASA([1497.21, 5000.00],
                     [ 2.46392530E+01,  4.76232692E-02, -1.84611407E-05,
                       3.25852703E-09, -2.17476714E-13,  1.18691864E+04,
                      -9.56751355E+01])),
        transport=gas_transport(geom='nonlinear',
                                diam=6.908,
                                well_depth=484.01))

species(name=u'X(1)',
        atoms='X:1',
        thermo=(NASA([100.00, 1554.80],
                     [ 7.10139498E-03, -4.25619522E-05,  8.98533016E-08,
                      -7.80193649E-11,  2.32465471E-14, -8.76101712E-01,
                      -3.11211229E-02]),
                NASA([1554.80, 5000.00],
                     [ 1.60299900E-01, -2.52235409E-04,  1.14181275E-07,
                      -1.21471653E-11,  3.85790025E-16, -7.08100885E+01,
                      -9.09527530E-01])))

species(name=u'HX(5)',
        atoms='H:1 X:1',
        thermo=(NASA([100.00, 952.91],
                     [-3.80965452E-01,  5.47228709E-03,  2.60912778E-06,
                      -9.64961980E-09,  4.63946753E-12,  5.08308927E+03,
                       1.01725550E+00]),
                NASA([952.91, 5000.00],
                     [ 2.80339655E+00, -5.41047017E-04,  4.99507978E-07,
                      -7.54963647E-11,  3.06772366E-15,  4.14233985E+03,
                      -1.59436787E+01])))

species(name=u'C2H3X(27)',
        atoms='H:3 C:2 X:1',
        thermo=(NASA([100.00, 928.62],
                     [ 3.83091018E+00, -8.76381562E-03,  6.97956896E-05,
                      -8.67969174E-08,  3.33218121E-11,  5.22670203E+03,
                      -1.81151753E+01]),
                NASA([928.62, 5000.00],
                     [ 8.78054562E+00,  1.92497720E-03,  8.25825014E-07,
                      -1.63749818E-10,  5.71728318E-15,  2.92729890E+03,
                      -4.90588618E+01])))

species(name=u'allylX(28)',
        atoms='H:5 C:3 X:1',
        thermo=(NASA([100.00, 937.34],
                     [ 3.44148119E+00, -3.47700003E-03,  8.25933681E-05,
                      -1.05556823E-07,  4.04445066E-11,  1.68486390E+03,
                      -6.88846669E+00]),
                NASA([937.34, 5000.00],
                     [ 9.98148902E+00,  8.92268754E-03, -1.75442587E-06,
                       3.12285771E-10, -2.84156572E-14, -1.31193375E+03,
                      -4.74626902E+01])))

species(name=u'CH3X(29)',
        atoms='H:3 C:1 X:1',
        thermo=(NASA([100.00, 848.30],
                     [-1.21090496E+00,  2.92390681E-02, -4.49011079E-05,
                       3.86009808E-08, -1.30361041E-11, -2.49381461E+03,
                       6.80939750E+00]),
                NASA([848.30, 5000.00],
                     [ 1.62290877E+00,  1.12987268E-02, -5.08316908E-06,
                       9.46833581E-10, -6.42885536E-14, -2.80987951E+03,
                      -5.42501059E+00])))

species(name=u'C2H5X(30)',
        atoms='H:5 C:2 X:1',
        thermo=(NASA([100.00, 803.81],
                     [-1.64625424E+00,  3.89626488E-02, -4.31128887E-05,
                       2.97076939E-08, -8.80222915E-12, -6.47748963E+03,
                       9.27323637E+00]),
                NASA([803.81, 5000.00],
                     [ 1.97598112E+00,  2.09382766E-02, -9.47916922E-06,
                       1.81392948E-09, -1.27206354E-13, -7.05983841E+03,
                      -7.41107956E+00])))

species(name=u'C4H7X(31)',
        atoms='H:7 C:4 X:1',
        thermo=(NASA([100.00, 971.02],
                     [ 2.64365035E+00,  1.79007589E-02,  4.24443189E-05,
                      -6.44028479E-08,  2.49593993E-11, -2.27184553E+03,
                      -6.69991651E+00]),
                NASA([971.02, 5000.00],
                     [ 9.25871667E+00,  2.04064152E-02, -7.39143670E-06,
                       1.37021231E-09, -9.94133357E-14, -4.95932966E+03,
                      -4.56426102E+01])))

species(name=u'C4H7X(32)',
        atoms='H:7 C:4 X:1',
        thermo=(NASA([100.00, 986.67],
                     [ 2.45798205E+00,  2.47217336E-02,  2.01285964E-05,
                      -4.02735564E-08,  1.62485845E-11,  6.13034151E+03,
                      -5.12991781E+00]),
                NASA([986.67, 5000.00],
                     [ 8.87898065E+00,  2.09043993E-02, -7.83851223E-06,
                       1.44076477E-09, -1.02346878E-13,  3.78198541E+03,