units(length='cm', time='s', quantity='mol', act_energy='kcal/mol')

ideal_gas(name='gas',
          elements="H D T C Ci O Oi N Ne Ar He Si S Cl X",
          species="""Ar          Ne          N2          CH4(2)
                     O2(3)       CO2(4)      H2O(5)      H2(6)
                     CO(7)       C2H6(8)     CH2O(9)     CH3(10)
                     C3H8(11)    H(12)       C2H5(13)    CH3OH(14)
                     HCO(15)     CH3CHO(16)  OH(17)      C2H4(18)""",
          reactions='gas-*',
          transport='Mix',
          initial_state=state(temperature=300.0, pressure=OneAtm))

ideal_interface(name='surface1',
                elements="H D T C Ci O Oi N Ne Ar He Si S Cl X",
                species="""X(1)       OX(19)     CH3X(39)   HX(40)
                          CH4X(41)   HOX(43)    H2OX(44)   CH2X(176)
                          CHX(178)   CX(179)""",
                site_density=2.9e-09,
                phases="gas",
          reactions='surface1-*',
                initial_state=state(temperature=300.0, pressure=OneAtm))

#-------------------------------------------------------------------------------
# Element data
#-------------------------------------------------------------------------------

element(symbol=u'X', atomic_mass=195.083)
element(symbol=u'Ci', atomic_mass=13.003)
element(symbol=u'D', atomic_mass=2.014)
element(symbol=u'Oi', atomic_mass=18.0)
element(symbol=u'T', atomic_mass=3.016)
#-------------------------------------------------------------------------------
# Species data
#-------------------------------------------------------------------------------

species(name=u'Ar',
        atoms='Ar:1',
        thermo=(NASA([200.00, 1000.00],
                     [ 2.50000000E+00,  0.00000000E+00,  0.00000000E+00,
                       0.00000000E+00,  0.00000000E+00, -7.45375000E+02,
                       4.37967000E+00]),
                NASA([1000.00, 6000.00],
                     [ 2.50000000E+00,  0.00000000E+00,  0.00000000E+00,
                       0.00000000E+00,  0.00000000E+00, -7.45375000E+02,
                       4.37967000E+00])),
        transport=gas_transport(geom='atom',
                                diam=3.33,
                                well_depth=136.5))

species(name=u'Ne',
        atoms='Ne:1',
        thermo=(NASA([200.00, 1000.00],
                     [ 2.50000000E+00,  0.00000000E+00,  0.00000000E+00,
                       0.00000000E+00,  0.00000000E+00, -7.45375000E+02,
                       3.35532000E+00]),
                NASA([1000.00, 6000.00],
                     [ 2.50000000E+00,  0.00000000E+00,  0.00000000E+00,
                       0.00000000E+00,  0.00000000E+00, -7.45375000E+02,
                       3.35532000E+00])),
        transport=gas_transport(geom='atom',
                                diam=3.758,
                                well_depth=148.6))

species(name=u'N2',
        atoms='N:2',
        thermo=(NASA([200.00, 1000.00],
                     [ 3.53101000E+00, -1.23661000E-04, -5.02999000E-07,
                       2.43531000E-09, -1.40881000E-12, -1.04698000E+03,
                       2.96747000E+00]),
                NASA([1000.00, 6000.00],
                     [ 2.95258000E+00,  1.39690000E-03, -4.92632000E-07,
                       7.86010000E-11, -4.60755000E-15, -9.23949000E+02,
                       5.87189000E+00])),
        transport=gas_transport(geom='linear',
                                diam=3.621,
                                well_depth=97.53,
                                polar=1.76,
                                rot_relax=4.0))

species(name=u'CH4(2)',
        atoms='H:4 C:1',
        thermo=(NASA([100.00, 1084.15],
                     [ 4.20540072E+00, -5.35540640E-03,  2.51117636E-05,
                      -2.13755910E-08,  5.97496145E-12, -1.01619427E+04,
                      -9.21226951E-01]),
                NASA([1084.15, 5000.00],
                     [ 9.08349401E-01,  1.14539479E-02, -4.57166053E-06,
                       8.29173612E-10, -5.66300105E-14, -9.72001110E+03,
                       1.39926204E+01])),
        transport=gas_transport(geom='nonlinear',
                                diam=3.746,
                                well_depth=141.4,
                                polar=2.6,
                                rot_relax=13.0))

species(name=u'O2(3)',
        atoms='O:2',
        thermo=(NASA([100.00, 1074.56],
                     [ 3.53732118E+00, -1.21570207E-03,  5.31615377E-06,
                      -4.89440387E-09,  1.45843816E-12, -1.03858843E+03,
                       4.68368631E+00]),
                NASA([1074.56, 5000.00],
                     [ 3.15382772E+00,  1.67803228E-03, -7.69967779E-07,
                       1.51273960E-10, -1.08781182E-14, -1.04082030E+03,
                       6.16751919E+00])),
        transport=gas_transport(geom='linear',
                                diam=3.467,
                                well_depth=106.7))

species(name=u'CO2(4)',
        atoms='C:1 O:2',
        thermo=(NASA([100.00, 978.22],
                     [ 3.28083821E+00,  2.50193291E-03,  8.08164577E-06,
                      -1.20506695E-08,  4.66526645E-12, -4.84008301E+04,
                       6.00083693E+00]),
                NASA([978.22, 5000.00],
                     [ 4.67429780E+00,  2.60958835E-03, -9.85659769E-07,
                       1.95706729E-10, -1.49830320E-14, -4.89512267E+04,
                      -2.11090702E+00])),
        transport=gas_transport(geom='linear',
                                diam=3.941,
                                well_depth=195.201))

species(name=u'H2O(5)',
        atoms='H:2 O:1',
        thermo=(NASA([100.00, 1130.25],
                     [ 4.05763720E+00, -7.87951343E-04,  2.90882564E-06,
                      -1.47524910E-09,  2.12866372E-13, -3.02815867E+04,
                      -3.11369025E-01]),
                NASA([1130.25, 5000.00],
                     [ 2.84324104E+00,  2.75110073E-03, -7.81040007E-07,
                       1.07245603E-10, -5.79408217E-15, -2.99586086E+04,
                       5.91047337E+00])),
        transport=gas_transport(geom='nonlinear',
                                diam=2.641,
                                well_depth=809.102,
                                polar=1.76,
                                rot_relax=4.0))

species(name=u'H2(6)',
        atoms='H:2',
        thermo=(NASA([100.00, 1959.08],
                     [ 3.43536411E+00,  2.12710383E-04, -2.78625110E-07,
                       3.40267219E-10, -7.76032129E-14, -1.03135984E+03,
                      -3.90841731E+00]),
                NASA([1959.08, 5000.00],
                     [ 2.78816619E+00,  5.87640475E-04,  1.59010635E-07,
                      -5.52739465E-11,  4.34311304E-15, -5.96144481E+02,
                       1.12730527E-01])),
        transport=gas_transport(geom='linear',
                                diam=2.833,
                                well_depth=59.7))

species(name=u'CO(7)',
        atoms='C:1 O:1',
        thermo=(NASA([100.00, 1571.64],
                     [ 3.56837982E+00, -8.52124063E-04,  2.48917390E-06,
                      -1.56330672E-09,  3.13594213E-13, -1.42842549E+04,
                       3.57912239E+00]),
                NASA([1571.64, 5000.00],
                     [ 2.91306987E+00,  1.64657389E-03, -6.88612820E-07,
                       1.21036930E-10, -7.84014743E-15, -1.41808862E+04,
                       6.71043900E+00])),
        transport=gas_transport(geom='linear',
                                diam=3.69,
                                well_depth=91.7,
                                polar=1.76,
                                rot_relax=4.0))

species(name=u'C2H6(8)',
        atoms='H:6 C:2',
        thermo=(NASA([100.00, 1012.42],
                     [ 3.72239308E+00,  1.65083640E-03,  3.44175601E-05,
                      -3.76858321E-08,  1.24450696E-11, -1.15575902E+04,
                       4.68247939E+00]),
                NASA([1012.42, 5000.00],
                     [ 2.82848184E+00,  1.73040581E-02, -6.73334315E-06,
                       1.23742041E-09, -8.65676548E-14, -1.19978077E+04,
                       5.93812118E+00])),
        transport=gas_transport(geom='nonlinear',
                                diam=4.302,
                                well_depth=252.3,
                                rot_relax=1.5))

species(name=u'CH2O(9)',
        atoms='H:2 C:1 O:1',
        thermo=(NASA([100.00, 1070.44],
                     [ 4.12927829E+00, -4.08401633E-03,  2.03229448E-05,
                      -1.83524377E-08,  5.37976060E-12, -1.44294640E+04,
                       3.22418365E+00]),
                NASA([1070.44, 5000.00],
                     [ 2.21172293E+00,  7.94265924E-03, -3.34193191E-06,
                       6.28471724E-10, -4.40431711E-14, -1.42974450E+04,
                       1.13049069E+01])),
        transport=gas_transport(geom='nonlinear',
                                diam=3.59,
                                well_depth=498.0,
                                rot_relax=2.0))

species(name=u'CH3(10)',
        atoms='H:3 C:1',
        thermo=(NASA([100.00, 697.63],
                     [ 3.96043178E+00,  5.92930195E-04,  8.78578951E-06,
                      -9.88035524E-09,  3.63236942E-12,  1.64218817E+04,
                       3.39862787E-01]),
                NASA([697.63, 5000.00],
                     [ 3.09511262E+00,  5.55429714E-03, -1.88158748E-06,
                       3.13334732E-10, -2.05194931E-14,  1.65426190E+04,
                       4.20297474E+00])),
        transport=gas_transport(geom='nonlinear',
                                diam=3.8,
                                well_depth=144.0))

species(name=u'C3H8(11)',
        atoms='H:8 C:3',
        thermo=(NASA([100.00, 989.99],
                     [ 3.06337235E+00,  1.29213276E-02,  3.47037401E-05,
                      -4.70952219E-08,  1.71386763E-11, -1.43905793E+04,
                       1.07835211E+01]),
                NASA([989.99, 5000.00],
                     [ 5.60435845E+00,  2.19529500E-02, -8.22084738E-06,
                       1.50104968E-09, -1.05636167E-13, -1.58393862E+04,
                      -6.22599672E+00])),
        transport=gas_transport(geom='nonlinear',
                                diam=4.982,
                                well_depth=266.801,
                                rot_relax=1.0))

species(name=u'H(12)',
        atoms='H:1',
        thermo=(NASA([100.00, 4383.16],
                     [ 2.50000000E+00, -2.38914167E-13,  3.12709494E-16,
                      -1.33367320E-19,  1.74989654E-23,  2.54742178E+04,
                      -4.44972897E-01]),
                NASA([4383.16, 5000.00],
                     [ 2.50003447E+00, -3.04996987E-08,  1.01101187E-11,
                      -1.48796738E-15,  8.20356170E-20,  2.54741866E+04,
                      -4.45191184E-01])),
        transport=gas_transport(geom='atom',
                                diam=2.05,
                                well_depth=145.0))

species(name=u'C2H5(13)',
        atoms='H:5 C:2',
        thermo=(NASA([100.00, 1006.87],
                     [ 3.68745380E+00,  3.06903510E-03,  2.55868228E-05,
                      -2.94070210E-08,  9.94049079E-12,  1.31153653E+04,
                       6.96689006E+00]),
                NASA([1006.87, 5000.00],
                     [ 3.53785893E+00,  1.37310809E-02, -5.29559886E-06,
                       9.71471661E-10, -6.80280220E-14,  1.26351584E+04,
                       5.15538530E+00])),
        transport=gas_transport(geom='nonlinear',
                                diam=4.302,
                                well_depth=252.3,
                                rot_relax=1.5))

species(name=u'CH3OH(14)',
        atoms='H:4 C:1 O:1',
        thermo=(NASA([100.00, 1035.75],
                     [ 3.84006221E+00,  1.38241909E-03,  1.91667221E-05,
                      -2.01568699E-08,  6.39102422E-12, -2.56083087E+04,
                       5.90978110E+00]),
                NASA([1035.75, 5000.00],
                     [ 2.79184262E+00,  1.15827858E-02, -4.51551962E-06,
                       8.21206786E-10, -5.67063316E-14, -2.57211672E+04,
                       9.41061788E+00])),
        transport=gas_transport(geom='nonlinear',
                                diam=3.626,
                                well_depth=481.8,
                                rot_relax=1.0))

species(name=u'HCO(15)',
        atoms='H:1 C:1 O:1',
        thermo=(NASA([100.00, 1112.10],
                     [ 4.05936498E+00, -1.73847479E-03,  9.14984441E-06,
                      -8.01135632E-09,  2.25738876E-12,  3.84377613E+03,
                       3.32449376E+00]),
                NASA([1112.10, 5000.00],
                     [ 3.05135606E+00,  4.11707384E-03, -1.75586963E-06,
                       3.29304046E-10, -2.29175030E-14,  3.93008180E+03,
                       7.67467582E+00])),
        transport=gas_transport(geom='nonlinear',
                                diam=3.59,
                                well_depth=498.0))

species(name=u'CH3CHO(16)',
        atoms='H:4 C:2 O:1',
        thermo=(NASA([100.00, 1028.81],
                     [ 3.57992397E+00,  5.18983474E-03,  2.26897496E-05,
                      -2.73742644E-08,  9.28479682E-12, -2.13697374E+04,
                       8.96971567E+00]),
                NASA([1028.81, 5000.00],
                     [ 4.08563906E+00,  1.39061194E-02, -5.59370172E-06,
                       1.04609264E-09, -7.38738518E-14, -2.20391345E+04,
                       3.76801423E+00])),
        transport=gas_transport(geom='nonlinear',
                                diam=3.97,
                                well_depth=436.0,
                                rot_relax=2.0))

species(name=u'OH(17)',
        atoms='H:1 O:1',
        thermo=(NASA([100.00, 1145.76],
                     [ 3.51456841E+00,  2.92731942E-05, -5.32149835E-07,
                       1.01947431E-09, -3.85939061E-13,  3.41425418E+03,
                       2.10434749E+00]),
                NASA([1145.76, 5000.00],
                     [ 3.07193709E+00,  6.04020086E-04, -1.39807303E-08,
                      -2.13440498E-11,  2.48061111E-15,  3.57938799E+03,
                       4.57801556E+00])),
        transport=gas_transport(geom='linear',
                                diam=2.75,
                                well_depth=80.0))

species(name=u'C2H4(18)',
        atoms='H:4 C:2',
        thermo=(NASA([100.00, 979.37],
                     [ 3.97469045E+00, -4.75813325E-03,  4.16772624E-05,
                      -4.51377676E-08,  1.54218287E-11,  4.91540855E+03,
                       3.62439976E+00]),
                NASA([979.37, 5000.00],
                     [ 3.55670229E+00,  1.10625819E-02, -4.17009559E-06,
                       7.85564219E-10, -5.70042086E-14,  4.32042473E+03,
                       2.17665377E+00])),
        transport=gas_transport(geom='nonlinear',
                                diam=3.971,
                                well_depth=280.8,
                                rot_relax=1.5))

species(name=u'X(1)',
        atoms='X:1',
        thermo=(NASA([100.00, 1554.81],
                     [ 7.10134880E-03, -4.25615041E-05,  8.98521156E-08,
                      -7.80182565E-11,  2.32462166E-14, -8.76099414E-01,
                      -3.11209498E-02]),
                NASA([1554.81, 5000.00],
                     [ 1.60301287E-01, -2.52237396E-04,  1.14182282E-07,
                      -1.21473809E-11,  3.85806589E-16, -7.08108147E+01,
                      -9.09535600E-01])))

species(name=u'OX(19)',
        atoms='X:1 O:1',
        thermo=(NASA([100.00, 888.25],
                     [-7.59018036E-01,  1.89869128E-02, -3.82476163E-05,
                       3.43561864E-08, -1.13976013E-11, -1.72389492E+04,
                       1.76019150E+00]),
                NASA([888.25, 5000.00],
                     [ 1.89894867E+00,  2.03293217E-03, -1.19975265E-06,
                       2.32677501E-10, -1.53505623E-14, -1.75145004E+04,
                      -9.64111055E+00])))

species(name=u'CH3X(39)',
        atoms='H:3 C:1 X:1',
        thermo=(NASA([100.00, 848.30],
                     [-1.21090611E+00,  2.92390831E-02, -4.49011672E-05,
                       3.86010689E-08, -1.30361474E-11, -6.12022276E+03,
                       6.80940157E+00]),
                NASA([848.30, 5000.00],
                     [ 1.62291116E+00,  1.12987225E-02, -5.08316650E-06,
                       9.46832954E-10, -6.42885005E-14, -6.43628865E+03,
                      -5.42502394E+00])))

species(name=u'HX(40)',
        atoms='H:1 X:1',
        thermo=(NASA([100.00, 952.91],
                     [-3.80957846E-01,  5.47219393E-03,  2.60946928E-06,
                      -9.65008412E-09,  4.63967474E-12, -3.37659612E+03,
                       1.01722845E+00]),
                NASA([952.91, 5000.00],
                     [ 2.80337105E+00, -5.41002993E-04,  4.99482316E-07,
                      -7.54902555E-11,  3.06721398E-15, -4.31733471E+03,
                      -1.59435356E+01])))

species(name=u'CH4X(41)',
        atoms='H:4 C:1 X:1',
        thermo=(NASA([100.00, 886.28],
                     [-1.38690949E+00,  4.00454988E-02, -8.37934254E-05,
                       8.75675578E-08, -3.27887531E-11, -1.09112170E+04,
                       1.78812283E+01]),
                NASA([886.28, 5000.00],
                     [-2.16839093E+00,  1.99492654E-02, -9.80004492E-06,
                       1.83534461E-09, -1.22520122E-13, -9.84489084E+03,
                       2.67913137E+01])))

species(name=u'HOX(43)',
        atoms='H:1 O:1 X:1',
        thermo=(NASA([100.00, 914.54],
                     [-1.29521674E+00,  3.36486200E-02, -7.07755341E-05,
                       6.54367721E-08, -2.19434475E-11, -1.93470579E+04,
                       4.37653089E+00]),
                NASA([914.54, 5000.00],
                     [ 2.43538338E+00,  4.64605477E-03, -2.39990873E-06,
                       4.26359701E-10, -2.60614408E-14, -1.94989025E+04,
                      -1.03877722E+01])))

species(name=u'H2OX(44)',
        atoms='H:2 O:1 X:1',
        thermo=(NASA([100.00, 912.85],
                     [-1.34340519E+00,  3.66696015E-02, -7.99482515E-05,
                       7.74127762E-08, -2.68666529E-11, -3.23490303E+04,
                       1.10237802E+01]),
                NASA([912.85, 5000.00],
                     [ 1.12159987E+00,  8.16637387E-03, -4.02356932E-06,
                       7.20418131E-10, -4.51440018E-14, -3.20615278E+04,
                       3.39609648E+00])))

species(name=u'CH2X(176)',
        atoms='H:2 C:1 X:1',
        thermo=(NASA([100.00, 1199.84],
                     [-1.02006572E+00,  2.03778530E-02, -2.17291021E-05,
                       1.15868493E-08, -2.38469826E-12, -3.52138311E+02,
                       2.99160375E+00]),
                NASA([1199.84, 5000.00],
                     [ 3.89285623E+00,  3.99892031E-03, -1.25227793E-06,
                       2.09081002E-10, -1.39642186E-14, -1.53105772E+03,
                      -2.16053785E+01])))

species(name=u'CHX(178)',
        atoms='H:1 C:1 X:1',
        thermo=(NASA([100.00, 1596.82],
                     [-9.66375286E-01,  1.63179008E-02, -1.75392291E-05,
                       8.64095972E-09, -1.55501482E-12, -3.35441189E+03,
                       2.54982388E+00]),
                NASA([1596.82, 5000.00],
                     [ 4.21481432E+00,  2.18380791E-04,  5.15663412E-07,
                      -1.20801040E-10,  8.35333025E-15, -4.61122814E+03,
                      -2.36254728E+01])))

species(name=u'CX(179)',
        atoms='X:1 C:1',
        thermo=(NASA([100.00, 1401.12],
                     [-6.04857256E-01,  1.10908355E-02, -1.34369676E-05,
                       7.18239043E-09, -1.40685313E-12,  6.24479347E+03,
                       1.48480345E+00]),
                NASA([1401.12, 5000.00],
                     [ 3.08076591E+00, -6.87473269E-04,  5.17593613E-07,
                      -9.73030868E-11,  6.24250814E-15,  5.33531584E+03,
                      -1.70991710E+01])))

#-------------------------------------------------------------------------------
# Reaction data
#-------------------------------------------------------------------------------
#  Reaction index: Chemkin #1; RMG #6
#  Library reaction: BurkeH2O2inArHe
#  Flux pairs: H2(6), H(12); H2(6), H(12);

# Reaction 1
three_body_reaction('H2(6) + M <=> H(12) + H(12) + M', [4.577000e+19, -1.4, 104.38],
                    efficiencies='H2(6):2.5 CO(7):1.9 CO2(4):3.8 H2O(5):12.0 Ar:0.0',
                    id='gas-1')
#  Reaction index: Chemkin #2; RMG #7
#  Library reaction: BurkeH2O2inArHe
#  Flux pairs: Ar, H(12); H2(6), Ar; H2(6), H(12);

# Reaction 2
reaction('H2(6) + Ar <=> Ar + H(12) + H(12)', [5.840000e+18, -1.1, 104.38],
         id='gas-2')
#  Reaction index: Chemkin #3; RMG #4
#  Library reaction: BurkeH2O2inArHe
#  Flux pairs: OH(17), H2O(5); H2(6), H(12);

# Reaction 3
reaction('H2(6) + OH(17) <=> H2O(5) + H(12)', [2.160000e+08, 1.51, 3.43],
         id='gas-3')
#  Reaction index: Chemkin #4; RMG #13
#  Library reaction: BurkeH2O2inArHe
#  Flux pairs: H2O(5), H(12); H2O(5), OH(17);

# Reaction 4
three_body_reaction('H2O(5) + M <=> H(12) + OH(17) + M', [6.064000e+27, -3.322, 120.79],
                    efficiencies='H2O(5):0.0 CO(7):1.9 O2(3):1.5 CO2(4):3.8 H2(6):3.0 N2:2.0',
                    id='gas-4')
#  Reaction index: Chemkin #5; RMG #14
#  Library reaction: BurkeH2O2inArHe
#  Flux pairs: H2O(5), OH(17); H2O(5), H(12); H2O(5), H2O(5);

# Reaction 5
reaction('H2O(5) + H2O(5) <=> H2O(5) + H(12) + OH(17)', [1.006000e+26, -2.44, 120.18],
         id='gas-5')
#  Reaction index: Chemkin #6; RMG #28
#  Library reaction: BurkeH2O2inArHe
#  Flux pairs: OH(17), O2(3); OH(17), H2(6);

# Reaction 6
reaction('OH(17) + OH(17) <=> O2(3) + H2(6)', [2.000000e+11, 0.51, 50.5],
         id='gas-6')
#  Reaction index: Chemkin #7; RMG #32
#  Template reaction: R_Recombination
#  Flux pairs: CH3(10), CH4(2); H(12), CH4(2);
#  Matched reaction 57 H + CH3 <=> CH4 in R_Recombination/training
#  This reaction matched rate rule [C_methyl;H_rad]
#  family: R_Recombination

# Reaction 7
reaction('CH3(10) + H(12) <=> CH4(2)', [1.930000e+14, 0.0, 0.27],
         id='gas-7')
#  Reaction index: Chemkin #8; RMG #34
#  Template reaction: R_Recombination
#  Flux pairs: CH3(10), C2H6(8); CH3(10), C2H6(8);
#  Matched reaction 9 CH3 + CH3 <=> C2H6 in R_Recombination/training
#  This reaction matched rate rule [C_methyl;C_methyl]
#  family: R_Recombination

# Reaction 8
reaction('CH3(10) + CH3(10) <=> C2H6(8)', [9.450000e+14, -0.538, 0.135],
         id='gas-8')
#  Reaction index: Chemkin #9; RMG #35
#  Template reaction: R_Recombination
#  Flux pairs: C2H5(13), C2H6(8); H(12), C2H6(8);
#  Matched reaction 58 H + C2H5 <=> C2H6-2 in R_Recombination/training
#  This reaction matched rate rule [C_rad/H2/Cs;H_rad]
#  family: R_Recombination

# Reaction 9
reaction('H(12) + C2H5(13) <=> C2H6(8)', [1.000000e+14, 0.0, 0.0],
         id='gas-9')
#  Reaction index: Chemkin #10; RMG #37
#  Template reaction: R_Recombination
#  Flux pairs: HCO(15), CH2O(9); H(12), CH2O(9);
#  Matched reaction 63 H + CHO <=> CH2O in R_Recombination/training
#  This reaction matched rate rule [CO_pri_rad;H_rad]
#  family: R_Recombination

# Reaction 10
reaction('HCO(15) + H(12) <=> CH2O(9)', [4.680000e+10, 0.0, -4.53],
         id='gas-10')
#  Reaction index: Chemkin #11; RMG #38
#  Template reaction: 1,2_Insertion_CO
#  Flux pairs: CO(7), CH2O(9); H2(6), CH2O(9);
#  Matched reaction 2 H2 + CO <=> CH2O in 1,2_Insertion_CO/training
#  This reaction matched rate rule [CO;H2]
#  family: 1,2_Insertion_CO

# Reaction 11
reaction('H2(6) + CO(7) <=> CH2O(9)', [2.890000e+09, 1.16, 82.1],
         id='gas-11')
#  Reaction index: Chemkin #12; RMG #40
#  Template reaction: R_Recombination
#  Flux pairs: C2H5(13), C3H8(11); CH3(10), C3H8(11);
#  Matched reaction 10 CH3 + C2H5 <=> C3H8 in R_Recombination/training
#  This reaction matched rate rule [C_rad/H2/Cs;C_methyl]
#  family: R_Recombination

# Reaction 12
reaction('CH3(10) + C2H5(13) <=> C3H8(11)', [1.230000e+15, -0.562, 0.021],
         id='gas-12')
#  Reaction index: Chemkin #13; RMG #45
#  Template reaction: R_Addition_MultipleBond
#  Flux pairs: C2H4(18), C2H5(13); H(12), C2H5(13);
#  Matched reaction 2541 H + C2H4 <=> C2H5-2 in R_Addition_MultipleBond/training
#  This reaction matched rate rule [Cds-HH_Cds-HH;HJ]
#  family: R_Addition_MultipleBond

# Reaction 13
reaction('H(12) + C2H4(18) <=> C2H5(13)', [4.620000e+08, 1.64, 1.01],
         id='gas-13')
#  Reaction index: Chemkin #14; RMG #49
#  Template reaction: R_Recombination
#  Flux pairs: OH(17), CH3OH(14); CH3(10), CH3OH(14);
#  Matched reaction 73 CH3 + OH <=> CH4O in R_Recombination/training
#  This reaction matched rate rule [O_pri_rad;C_methyl]
#  family: R_Recombination

# Reaction 14
reaction('CH3(10) + OH(17) <=> CH3OH(14)', [6.030000e+13, 0.0, 0.0],
         id='gas-14')
#  Reaction index: Chemkin #15; RMG #53
#  Template reaction: R_Addition_COm
#  Flux pairs: CO(7), HCO(15); H(12), HCO(15);
#  Matched reaction 4 H + CO <=> CHO in R_Addition_COm/training
#  This reaction matched rate rule [COm;H_rad]
#  family: R_Addition_COm

# Reaction 15
reaction('CO(7) + H(12) <=> HCO(15)', [1.180000e+11, 0.0, 2.72],
         id='gas-15')
#  Reaction index: Chemkin #16; RMG #55
#  Template reaction: R_Recombination
#  Flux pairs: HCO(15), CH3CHO(16); CH3(10), CH3CHO(16);
#  Matched reaction 71 CH3 + CHO <=> C2H4O in R_Recombination/training
#  This reaction matched rate rule [CO_pri_rad;C_methyl]
#  family: R_Recombination

# Reaction 16
reaction('HCO(15) + CH3(10) <=> CH3CHO(16)', [1.810000e+13, 0.0, 0.0],
         id='gas-16')
#  Reaction index: Chemkin #17; RMG #59
#  Template reaction: 1,2_Insertion_CO
#  Flux pairs: CO(7), CH3CHO(16); CH4(2), CH3CHO(16);
#  Matched reaction 3 CH4 + CO <=> C2H4O in 1,2_Insertion_CO/training
#  This reaction matched rate rule [CO;C_methane]
#  family: 1,2_Insertion_CO

# Reaction 17
reaction('CH4(2) + CO(7) <=> CH3CHO(16)', [6.560000e+04, 2.86, 86.9],
         id='gas-17')
#  Reaction index: Chemkin #18; RMG #100
#  Template reaction: CO_Disproportionation
#  Flux pairs: CH3(10), CH4(2); HCO(15), CO(7);
#  Matched reaction 3 HCO + CH3 <=> CO + CH4 in CO_Disproportionation/training
#  This reaction matched rate rule [C_methyl;HCO]
#  family: CO_Disproportionation

# Reaction 18
reaction('HCO(15) + CH3(10) <=> CH4(2) + CO(7)', [4.000000e+13, 0.0, 0.0],
         id='gas-18')
#  Reaction index: Chemkin #19; RMG #103
#  Template reaction: H_Abstraction
#  Flux pairs: H(12), H2(6); CH4(2), CH3(10);
#  Matched reaction 186 CH4b + H <=> CH3_p1 + H2_p in H_Abstraction/training
#  This reaction matched rate rule [C_methane;H_rad]
#  family: H_Abstraction

# Reaction 19
reaction('CH4(2) + H(12) <=> H2(6) + CH3(10)', [4.100000e+03, 3.156, 8.755],
         id='gas-19')
#  Reaction index: Chemkin #20; RMG #104
#  Template reaction: H_Abstraction
#  Flux pairs: C2H6(8), C2H5(13); CH3(10), CH4(2);
#  Matched reaction 215 C2H6 + CH3_r3 <=> C2H5b + CH4 in H_Abstraction/training
#  This reaction matched rate rule [C_methane;C_rad/H2/Cs\H3]
#  family: H_Abstraction

# Reaction 20
reaction('C2H6(8) + CH3(10) <=> CH4(2) + C2H5(13)', [3.500000e+01, 3.44, 10.384],
         id='gas-20')
#  Reaction index: Chemkin #21; RMG #106
#  Template reaction: H_Abstraction
#  Flux pairs: HCO(15), CH2O(9); CH4(2), CH3(10);
#  Matched reaction 319 HCO_r3 + CH4b <=> CH2O + CH3_p1 in H_Abstraction/training
#  This reaction matched rate rule [C_methane;CO_pri_rad]
#  family: H_Abstraction

# Reaction 21
reaction('CH4(2) + HCO(15) <=> CH2O(9) + CH3(10)', [7.280000e+03, 2.85, 34.25],
         id='gas-21')
#  Reaction index: Chemkin #22; RMG #109
#  Template reaction: H_Abstraction
#  Flux pairs: OH(17), H2O(5); CH4(2), CH3(10);
#  Matched reaction 188 CH4b + OH <=> CH3_p1 + H2O_p in H_Abstraction/training
#  This reaction matched rate rule [C_methane;O_pri_rad]
#  family: H_Abstraction

# Reaction 22
reaction('CH4(2) + OH(17) <=> H2O(5) + CH3(10)', [1.000000e+06, 2.182, 2.506],
         id='gas-22')
#  Reaction index: Chemkin #23; RMG #110
#  Template reaction: Disproportionation
#  Flux pairs: CH3(10), CH4(2); C2H5(13), C2H4(18);
#  Matched reaction 5 CH3 + C2H5 <=> CH4 + C2H4 in Disproportionation/training
#  This reaction matched rate rule [C_methyl;Cmethyl_Csrad]
#  family: Disproportionation

# Reaction 23
reaction('CH3(10) + C2H5(13) <=> CH4(2) + C2H4(18)', [6.570000e+14, -0.68, 0.0],
         id='gas-23')
#  Reaction index: Chemkin #24; RMG #209
#  Template reaction: CO_Disproportionation
#  Flux pairs: OH(17), H2O(5); HCO(15), CO(7);
#  Estimated using template [O_rad;HCO] for rate rule [O_pri_rad;HCO]
#  Euclidian distance = 1.0
#  family: CO_Disproportionation

# Reaction 24
reaction('HCO(15) + OH(17) <=> H2O(5) + CO(7)', [1.240000e+23, -3.29, 2.355],
         id='gas-24')
#  Reaction index: Chemkin #25; RMG #213
#  Template reaction: H_Abstraction
#  Flux pairs: C2H6(8), C2H5(13); OH(17), H2O(5);
#  Matched reaction 212 C2H6 + OH <=> C2H5b + H2O_p in H_Abstraction/training
#  This reaction matched rate rule [O_pri;C_rad/H2/Cs\H3]
#  family: H_Abstraction

# Reaction 25
reaction('C2H6(8) + OH(17) <=> H2O(5) + C2H5(13)', [1.610000e+06, 2.224, 0.741],
         id='gas-25')
#  Reaction index: Chemkin #26; RMG #215
#  Template reaction: H_Abstraction
#  Flux pairs: CH2O(9), HCO(15); OH(17), H2O(5);
#  Matched reaction 368 OH_p23 + CH2O <=> H2O + HCO_r3 in H_Abstraction/training
#  This reaction matched rate rule [O_pri;CO_pri_rad]
#  family: H_Abstraction

# Reaction 26