#
#  SURFACE MECHANISM OF POX of CH4 on PT wire gauze
#
#***********************************************************************
#****                                                                  *
#****     CH4-O2 SURFACE MECHANISM  ON PT                              *
#****                                                                  *
#****     Fall 2018                                                    *
#****                                                                  *
#****                                                                  *
#****     Reference for kinetic data:                                  *
#****     R. Quiceno, J. Perez-Ramyrez, J. Warnatz, O. Deutschmann.    *
#****     Appl. Catal. A: General (2006)                               *
#****     www.detchem.com/mechanisms                                   *
#****      The kinetic data of the backward reactions of               *
#****      reactions in Section 3 are calculated                       *
#****      from thermodynamics (k_b = k_f /K)                          *
#****                                                                  *
#****                                                                  *
#****                                                                  *
#****     Surface site density: 2.72E-9 mol/cm**2                      *
#****                                                                  *
#----------------------------------------------------------------------

units(length = "cm", time = "s", quantity = "mol", act_energy = "J/mol")


#
# Define a gas mixture. This contains only major species, and no
# gas-phase reactions.
#
ideal_gas(name = "gas",
          elements = "O H C N Ar",
          species = """H2 O2 H2O CH4 CO CO2 AR NN""",
          options = ['skip_undeclared_elements',
                     'skip_undeclared_species'],
          initial_state = state(temperature = 300.0, pressure = OneAtm)
          )


#
# The platinum surface.
ideal_interface(name = "Pt_surf",
                elements = " Pt  H  O  C ",
                species = """ Pt_ads H_ads
                              H2O_ads  OH_ads  CO_ads  
                              CO2_ads CH3_ads
                              CH2_ads  CH_ads  C_ads  O_ads """,
                phases = "gas",
                site_density = 2.72e-9,
                reactions = "all",
                options = ['skip_undeclared_elements',
                           'skip_undeclared_species'],
                initial_state = state(temperature = 300.0,pressure = OneAtm)
                )



#-------------------------------------------------------------------------------
#  Species data
#-------------------------------------------------------------------------------

species(name = "AR",
    atoms = " Ar:1 ",
    thermo = (
       NASA( [  300.00,  1000.00], [  2.500000000E+00,   0.000000000E+00,
                0.000000000E+00,   0.000000000E+00,   0.000000000E+00,
               -7.453749800E+02,   4.366000600E+00] ),
       NASA( [ 1000.00,  5000.00], [  2.500000000E+00,   0.000000000E+00,
                0.000000000E+00,   0.000000000E+00,   0.000000000E+00,
               -7.453750200E+02,   4.366000600E+00] )))

species(name = "CO2",
    atoms = " C:1  O:2 ",
    thermo = (
       NASA( [  300.00,  1000.00], [  2.275724650E+00,   9.922072290E-03,
               -1.040911320E-05,   6.866686780E-09,  -2.117280090E-12,
               -4.837314060E+04,   1.018848800E+01] ),
       NASA( [ 1000.00,  5000.00], [  4.453622820E+00,   3.140168730E-03,
               -1.278410540E-06,   2.393996670E-10,  -1.669033190E-14,
               -4.896696090E+04,  -9.553958770E-01] )
             )
       )
  
species(name = "H",
	atoms = " H:1",
	thermo = (
		NASA( [300.0, 1000.0], [2.50000000E+00, 9.48921515E-18,
 		 -2.93356873E-20, 4.55234918E-23, -2.82904395E-26,
 		 3.94477714E+04, -4.43668272E-01]), 
		NASA( [1000.0, 2000.0], [2.50000000E+00, 8.65525621E-18,
 		 -8.87894308E-21, 3.98028955E-24, -6.58503466E-28,
 		 3.94477714E+04, -4.43668272E-01]), 
		 ))

species(name = "H2",
	atoms = " H:2",
	thermo = (
		NASA( [300.0, 1000.0], [3.46257353E+00, 2.90518829E-04,
 		 -7.73920615E-07, 7.85718742E-10, -1.96224926E-13,
 		 -1.13006370E+03, -4.12394568E+00]), 
		NASA( [1000.0, 2000.0], [3.57047181E+00, -4.82858075E-04,
 		 6.34857803E-07, -1.58914955E-10, 5.10897208E-15,
 		 -1.12497470E+03, -4.53574851E+00]), 
		 ))


species(name = "H2O",
	atoms = " H:2 O:1",
	thermo = (
		NASA( [300.0, 1000.0], [4.19741891E+00, -2.12047374E-03,
 		 6.67208194E-06, -5.68145594E-09, 1.83632189E-12,
 		 -3.61454792E+04, -8.17615498E-01]), 
		NASA( [1000.0, 2000.0], [4.90234443E+00, -2.97941742E-03,
 		 4.97806896E-06, -2.38820786E-09, 3.91104950E-13,
 		 -3.63905305E+04, -4.71756345E+00]), 
		 ))

species(name = "OH",
	atoms = " H:1 O:1",
	thermo = (
		NASA( [300.0, 1000.0], [3.42916978E+00, 6.18046699E-04,
 		 -1.90419225E-06, 2.34897643E-09, -8.44886010E-13,
 		 -2.23985805E+03, 1.81581046E+00]), 
		NASA( [1000.0, 2000.0], [3.64742136E+00, -9.89286650E-04,
 		 1.58701406E-06, -7.04198385E-10, 1.06164258E-13,
 		 -2.24509474E+03, 9.49874500E-01]), 
		 ))

species(name = "HO-OH",
	atoms = " H:2 O:2",
	thermo = (
		NASA( [300.0, 1000.0], [3.08936960E+00, 8.01930258E-03,
 		 -3.10547738E-06, -2.00088883E-09, 1.61723239E-12,
 		 -3.31683563E+04, 7.58692236E+00]), 
		NASA( [1000.0, 2000.0], [7.61344075E+00, -4.39829090E-03,
 		 7.61622252E-06, -3.88356784E-09, 6.71733829E-13,
 		 -3.43977612E+04, -1.57435762E+01]), 
		 ))

species(name = "O2",
	atoms = " O:2",
	thermo = (
		NASA( [300.0, 1000.0], [3.77364246E+00, -2.98737340E-03,
 		 9.93776248E-06, -9.93449363E-09, 3.38365880E-12,
 		 -2.17678543E+04, 3.73573477E+00]), 
		NASA( [1000.0, 2000.0], [4.17061161E+00, -1.13959784E-03,
 		 2.08067401E-06, -1.15060194E-09, 2.12110882E-13,
 		 -2.20313451E+04, 9.39260796E-01]), 
		 ))

species(name = "OOH",
	atoms = " H:1 O:2",
	thermo = (
		NASA( [300.0, 1000.0], [3.56100883E+00, 6.74731064E-04,
 		 7.36057346E-06, -9.65004284E-09, 3.76557260E-12,
 		 -1.90028191E+04, 6.83155178E+00]), 
		NASA( [1000.0, 2000.0], [5.70887632E+00, -2.79386558E-03,
 		 4.90881380E-06, -2.56416974E-09, 4.52188315E-13,
 		 -1.97079265E+04, -4.84452638E+00]), 
		 ))

species(name = "O",
	atoms = " O:1",
	thermo = (
		NASA( [300.0, 1000.0], [2.50000000E+00, 9.48921515E-18,
 		 -2.93356873E-20, 4.55234918E-23, -2.82904395E-26,
 		 2.70923118E+04, 3.00714213E+00]), 
		NASA( [1000.0, 2000.0], [2.50000000E+00, 8.65525621E-18,
 		 -8.87894308E-21, 3.98028955E-24, -6.58503466E-28,
 		 2.70923118E+04, 3.00714213E+00]), 
		 ))

species(name = "O-NH2",
	atoms = " H:2 O:1 N:1",
	thermo = (
		NASA( [300.0, 1000.0], [3.96541653E+00, 1.11626691E-03,
 		 1.02125103E-05, -1.23710755E-08, 4.57283018E-12,
 		 -6.33568268E+03, 5.04660868E+00]), 
		NASA( [1000.0, 2000.0], [7.48649034E+00, -5.40282449E-03,
 		 9.48673992E-06, -4.94414103E-09, 8.69683718E-13,
 		 -7.47139164E+03, -1.39439891E+01]), 
		 ))

species(name = "O-CH3",
	atoms = " H:3 C:1 O:1",
	thermo = (
		NASA( [300.0, 1000.0], [2.23811397E+00, 8.83931388E-03,
 		 4.74754953E-06, -1.06068329E-08, 4.42571674E-12,
 		 -9.89503224E+03, 1.30867517E+01]), 
		NASA( [1000.0, 2000.0], [9.62317691E+00, -8.65730966E-03,
 		 1.54421230E-05, -8.24077958E-09, 1.47665060E-12,
 		 -1.20983413E+04, -2.58295369E+01]), 
		 ))

species(name = "NH3",
	atoms = " H:3 N:1",
	thermo = (
		NASA( [300.0, 1000.0], [3.90255341E+00, -1.76022591E-03,
 		 1.27604865E-05, -1.25488684E-08, 4.25535215E-12,
 		 -6.65688382E+03, 9.79332129E-01]), 
		NASA( [1000.0, 2000.0], [6.60081198E+00, -6.29698177E-03,
 		 1.08739839E-05, -5.51730798E-09, 9.48791645E-13,
 		 -7.55450826E+03, -1.36967839E+01]), 
		 ))

species(name = "NH2",
	atoms = " H:2 N:1",
	thermo = (
		NASA( [300.0, 1000.0], [4.12133281E+00, -1.63183113E-03,
 		 5.65237325E-06, -4.30104442E-09, 1.22520722E-12,
 		 1.86283403E+04, 3.33945458E+00]), 
		NASA( [1000.0, 2000.0], [5.06167757E+00, -3.47361173E-03,
 		 5.95988928E-06, -2.99069814E-09, 5.08780750E-13,
 		 1.83220792E+04, -1.72586978E+00]), 
		 ))

species(name = "NH",
	atoms = " H:1 N:1",
	thermo = (
		NASA( [300.0, 1000.0], [3.44750069E+00, 5.51407384E-04,
 		 -2.01381304E-06, 2.88885027E-09, -1.16106192E-12,
 		 3.84155217E+04, 2.06724311E+00]), 
		NASA( [1000.0, 2000.0], [3.71127613E+00, -1.25054874E-03,
 		 2.10527409E-06, -1.02127391E-09, 1.68155840E-13,
 		 3.83913828E+04, 9.58629820E-01]), 
		 ))

species(name = "N",
	atoms = " N:1",
	thermo = (
		NASA( [300.0, 1000.0], [2.50000000E+00, 9.48921515E-18,
 		 -2.93356873E-20, 4.55234918E-23, -2.82904395E-26,
 		 7.83160705E+04, 3.49999223E+00]), 
		NASA( [1000.0, 2000.0], [2.50000000E+00, 8.65525621E-18,
 		 -8.87894308E-21, 3.98028955E-24, -6.58503466E-28,
 		 7.83160705E+04, 3.49999223E+00]), 
		 ))

species(name = "H2N-NH2",
	atoms = " H:4 N:2",
	thermo = (
		NASA( [300.0, 1000.0], [2.19416682E+00, 1.06484832E-02,
 		 5.77429233E-06, -1.35215325E-08, 5.92010295E-12,
 		 8.73690118E+03, 1.19530960E+01]), 
		NASA( [1000.0, 2000.0], [1.09969391E+01, -1.05598168E-02,
 		 1.85169679E-05, -9.62988086E-09, 1.69130346E-12,
 		 6.16356735E+03, -3.42573559E+01]), 
		 ))

species(name = "HN-NH",
	atoms = " H:2 N:2",
	thermo = (
		NASA( [300.0, 1000.0], [4.47697787E+00, -7.69268064E-03,
 		 3.07082019E-05, -3.06655292E-08, 1.04351814E-11,
 		 2.09964512E+04, 1.92208045E+00]), 
		NASA( [1000.0, 2000.0], [7.25007141E+00, -6.77393263E-03,
 		 1.20339868E-05, -6.38809153E-09, 1.14011727E-12,
 		 1.97783754E+04, -1.45841247E+01]), 
		 ))

species(name = "NN",
	atoms = " N:2",
	thermo = (
		NASA( [300.0, 1000.0], [3.68085164E+00, -1.17587784E-03,
 		 2.09803546E-06, -4.38660526E-10, -2.72804132E-13,
 		 -3.03656226E+03, 2.35744150E+00]), 
		NASA( [1000.0, 2000.0], [3.88614840E+00, -1.50363207E-03,
 		 2.66935237E-06, -1.41075202E-09, 2.50427924E-13,
 		 -3.13004441E+03, 1.17461999E+00]), 
		 ))

species(name = "HN-NH2",
	atoms = " H:3 N:2",
	thermo = (
		NASA( [300.0, 1000.0], [2.20989866E+00, 1.12941024E-02,
 		 -2.59020125E-06, -4.04988226E-09, 2.46457715E-12,
 		 2.04761352E+04, 1.27488925E+01]), 
		NASA( [1000.0, 2000.0], [9.31383947E+00, -7.69496128E-03,
 		 1.34836382E-05, -7.00251451E-09, 1.22849284E-12,
 		 1.84941547E+04, -2.40780163E+01]), 
		 ))

species(name = "N-NH",
	atoms = " H:1 N:2",
	thermo = (
		NASA( [300.0, 1000.0], [4.02217225E+00, -1.76402080E-03,
 		 9.84217840E-06, -9.34157683E-09, 2.94250388E-12,
 		 2.25019429E+04, 4.23887764E+00]), 
		NASA( [1000.0, 2000.0], [5.69124888E+00, -3.53909464E-03,
 		 6.34124929E-06, -3.40509387E-09, 6.12947241E-13,
 		 2.18691702E+04, -5.16159538E+00]), 
		 ))

species(name = "N-NH2",
	atoms = " H:2 N:2",
	thermo = (
		NASA( [300.0, 1000.0], [4.04359499E+00, -3.99974537E-03,
 		 2.22829198E-05, -2.23333987E-08, 7.44138258E-12,
 		 2.90223329E+04, 4.27286549E+00]), 
		NASA( [1000.0, 2000.0], [7.41821854E+00, -6.82550880E-03,
 		 1.22032417E-05, -6.53541042E-09, 1.17421225E-12,
 		 2.77244208E+04, -1.48718092E+01]), 
		 ))

species(name = "HN-CH3",
	atoms = " H:4 C:1 N:1",
	thermo = (
		NASA( [300.0, 1000.0], [2.82377092E+00, 7.14067238E-03,
 		 1.40089687E-05, -2.06053646E-08, 8.05259592E-12,
 		 1.60932777E+04, 1.09048090E+01]), 
		NASA( [1000.0, 2000.0], [1.13983240E+01, -1.11433751E-02,
 		 1.97715244E-05, -1.04709800E-08, 1.86515009E-12,
 		 1.34437895E+04, -3.47546021E+01]), 
		 ))

species(name = "N-CH2",
	atoms = " H:2 C:1 N:1",
	thermo = (
		NASA( [300.0, 1000.0], [2.91687709E+00, 4.37063645E-03,
 		 5.92628459E-06, -9.05470944E-09, 3.47223552E-12,
 		 2.20697249E+04, 9.55926380E+00]), 
		NASA( [1000.0, 2000.0], [7.61666664E+00, -6.07896090E-03,
 		 1.08380028E-05, -5.77927515E-09, 1.03489081E-12,
 		 2.06261050E+04, -1.53944692E+01]), 
		 ))

species(name = "N-CH3",
	atoms = " H:3 C:1 N:1",
	thermo = (
		NASA( [300.0, 1000.0], [1.85337174E+00, 1.14178081E-02,
 		 5.37704308E-08, -6.74553670E-09, 3.20669706E-12,
 		 3.03675656E+04, 1.49486414E+01]), 
		NASA( [1000.0, 2000.0], [9.76420202E+00, -8.52918445E-03,
 		 1.52530393E-05, -8.17026405E-09, 1.46831783E-12,
 		 2.80676663E+04, -2.64405762E+01]), 
		 ))

species(name = "ON-O",
	atoms = " O:2 N:1",
	thermo = (
		NASA( [300.0, 1000.0], [2.16071448E+00, 1.26475468E-02,
 		 -1.42257716E-05, 7.46780217E-09, -1.45419614E-12,
 		 1.72553738E+04, 1.46191632E+01]), 
		NASA( [1000.0, 2000.0], [6.58971571E+00, -1.57224546E-03,
 		 2.90445341E-06, -1.62985858E-09, 3.04030651E-13,
 		 1.61489635E+04, -7.72761672E+00]), 
		 ))

species(name = "H2N-OH",
	atoms = " H:3 O:1 N:1",
	thermo = (
		NASA( [300.0, 1000.0], [2.57876093E+00, 1.33788006E-02,
 		 -9.33742512E-06, 2.61173399E-09, 2.07179759E-13,
 		 -1.33280061E+04, 1.02972847E+01]), 
		NASA( [1000.0, 2000.0], [9.42615443E+00, -6.82489415E-03,
 		 1.18613827E-05, -6.07885839E-09, 1.05526555E-12,
 		 -1.51367905E+04, -2.47137003E+01]), 
		 ))

species(name = "HN-O",
	atoms = " H:1 O:1 N:1",
	thermo = (
		NASA( [300.0, 1000.0], [4.62310726E+00, -6.25207571E-03,
 		 1.94346507E-05, -1.78547397E-08, 5.69595326E-12,
 		 8.56335500E+02, 1.39475642E+00]), 
		NASA( [1000.0, 2000.0], [5.63728901E+00, -3.76272615E-03,
 		 6.75172654E-06, -3.63527267E-09, 6.55879081E-13,
 		 2.78268433E+02, -5.23865422E+00]), 
		 ))

species(name = "HN-OH",
	atoms = " H:2 O:1 N:1",
	thermo = (
		NASA( [300.0, 1000.0], [2.57013424E+00, 7.39069591E-03,
 		 2.86338603E-07, -5.53305276E-09, 2.81864462E-12,
 		 -1.42033485E+03, 1.13185439E+01]), 
		NASA( [1000.0, 2000.0], [7.52443063E+00, -5.14887725E-03,
 		 9.02159523E-06, -4.68735508E-09, 8.22967076E-13,
 		 -2.82888579E+03, -1.45155581E+01]), 
		 ))

species(name = "NO",
	atoms = " O:1 N:1",
	thermo = (
		NASA( [300.0, 1000.0], [3.88901300E+00, -3.16803744E-03,
 		 8.25879207E-06, -7.00599581E-09, 2.07613917E-12,
 		 -1.00512818E+03, 3.21374196E+00]), 
		NASA( [1000.0, 2000.0], [4.04500846E+00, -1.38189520E-03,
 		 2.50204248E-06, -1.36358247E-09, 2.48337724E-13,
 		 -1.18032127E+03, 1.80454193E+00]), 
		 ))

species(name = "NOH",
	atoms = " H:1 O:1 N:1",
	thermo = (
		NASA( [300.0, 1000.0], [3.81537706E+00, -1.06052055E-03,
 		 1.06493908E-05, -1.17357163E-08, 4.15207604E-12,
 		 2.14167037E+04, 5.87421566E+00]), 
		NASA( [1000.0, 2000.0], [5.81370174E+00, -3.24117229E-03,
 		 5.80899618E-06, -3.12425005E-09, 5.63331418E-13,
 		 2.06870522E+04, -5.30217579E+00]), 
		 ))


species(name = "C",
	atoms = " C:1",
	thermo = (
		NASA( [300.0, 1000.0], [2.50000000E+00, 9.48921515E-18,
 		 -2.93356873E-20, 4.55234918E-23, -2.82904395E-26,
 		 8.46642863E+04, 2.57686851E+00]), 
		NASA( [1000.0, 2000.0], [2.50000000E+00, 8.65525621E-18,
 		 -8.87894308E-21, 3.98028955E-24, -6.58503466E-28,
 		 8.46642863E+04, 2.57686851E+00]), 
		 ))

species(name = "C-C",
	atoms = " C:2",
	thermo = (
		NASA( [300.0, 1000.0], [3.78164587E+00, -3.02822634E-03,
 		 9.97420405E-06, -9.93054504E-09, 3.37304533E-12,
 		 9.30335792E+04, 3.05450251E+00]), 
		NASA( [1000.0, 2000.0], [4.16747688E+00, -1.14698936E-03,
 		 2.09382513E-06, -1.15752066E-09, 2.13331874E-13,
 		 9.27726093E+04, 3.13815708E-01]), 
		 ))

species(name = "C-CH2",
	atoms = " H:2 C:2",
	thermo = (
		NASA( [300.0, 1000.0], [3.36431085E+00, 8.20562889E-03,
 		 -6.37064513E-06, 3.46879235E-09, -8.83151191E-13,
 		 4.38308670E+04, 6.15798548E+00]), 
		NASA( [1000.0, 2000.0], [7.77155111E+00, -5.06915327E-03,
 		 8.94850287E-06, -4.69597524E-09, 8.30010292E-13,
 		 4.26531947E+04, -1.63776447E+01]), 
		 ))

species(name = "C-CH3",
	atoms = " H:3 C:2",
	thermo = (
		NASA( [300.0, 1000.0], [2.14508219E+00, 1.11278060E-02,
 		 -7.21852229E-07, -5.63572350E-09, 2.81041163E-12,
 		 5.38564988E+04, 1.30241948E+01]), 
		NASA( [1000.0, 2000.0], [9.70558851E+00, -8.31079217E-03,
 		 1.48043602E-05, -7.88368116E-09, 1.41024874E-12,
 		 5.16819094E+04, -2.64270807E+01]), 
		 ))

species(name = "CH",
	atoms = " H:1 C:1",
	thermo = (
		NASA( [300.0, 1000.0], [3.54279756E+00, -1.04428164E-04,
 		 -6.25844620E-07, 2.02150847E-09, -1.02899712E-12,
 		 6.91138334E+04, 1.18721195E+00]), 
		NASA( [1000.0, 2000.0], [3.80100447E+00, -1.44771386E-03,
 		 2.52232179E-06, -1.29479532E-09, 2.24219050E-13,
 		 6.90563133E+04, -3.50851417E-02]), 
		 ))

species(name = "CH-CH",
	atoms = " H:2 C:2",
	thermo = (
		NASA( [300.0, 1000.0], [1.84576807E+00, 1.79912673E-02,
 		 -2.79554556E-05, 2.30719283E-08, -7.33117386E-12,
 		 2.35807888E+04, 6.68786873E+00]), 
		NASA( [1000.0, 2000.0], [7.60754092E+00, -4.63827351E-03,
 		 8.07335257E-06, -4.13762017E-09, 7.17334407E-13,
 		 2.23168691E+04, -2.14401890E+01]), 
		 ))

species(name = "CH2",
	atoms = " H:2 C:1",
	thermo = (
		NASA( [300.0, 1000.0], [4.11295289E+00, -1.68056964E-03,
 		 6.17371111E-06, -4.35024856E-09, 1.03343592E-12,
 		 4.19061403E+04, 7.02905631E-01]), 
		NASA( [1000.0, 2000.0], [5.28067052E+00, -3.82864878E-03,
 		 6.72593167E-06, -3.50355827E-09, 6.14886568E-13,
 		 4.15004260E+04, -5.66902592E+00]), 
		 ))

species(name = "CH2-CH2",
	atoms = " H:4 C:2",
	thermo = (
		NASA( [300.0, 1000.0], [1.37039082E+00, 1.15325105E-02,
 		 7.76317594E-06, -1.64805453E-08, 7.03005362E-12,
 		 2.98820661E+03, 1.49036702E+01]), 
		NASA( [1000.0, 2000.0], [1.11929594E+01, -1.14841387E-02,
 		 2.03546948E-05, -1.07628232E-08, 1.91489321E-12,
 		 7.03911842E+01, -3.68544575E+01]), 
		 ))

species(name = "CH3",
	atoms = " H:3 C:1",
	thermo = (
		NASA( [300.0, 1000.0], [3.53158105E+00, 4.02853554E-03,
 		 2.70453999E-09, -8.00959409E-10, 2.94206499E-13,
 		 1.42131416E+04, 2.09942314E+00]), 
		NASA( [1000.0, 2000.0], [7.04468098E+00, -5.96022962E-03,
 		 1.03762971E-05, -5.32990150E-09, 9.25221203E-13,
 		 1.32425926E+04, -1.60143489E+01]), 
		 ))

species(name = "CH3-CH3",
	atoms = " H:6 C:2",
	thermo = (
		NASA( [300.0, 1000.0], [2.32444635E+00, 7.16710369E-03,
 		 2.83361958E-05, -3.64972843E-08, 1.35857575E-11,
 		 -1.19561369E+04, 1.10904814E+01]), 
		NASA( [1000.0, 2000.0], [1.48786882E+01, -1.75821346E-02,
 		 3.12496723E-05, -1.65908534E-08, 2.96084649E-12,
 		 -1.59585440E+04, -5.63178982E+01]), 
		 ))

species(name = "CH4",
	atoms = " H:4 C:1",
	thermo = (
		NASA( [300.0, 1000.0], [4.34529103E+00, -7.86312881E-03,
 		 3.43928711E-05, -3.35263832E-08, 1.12037758E-11,
 		 -1.01104300E+04, -1.28140275E+00]), 
		NASA( [1000.0, 2000.0], [8.53393015E+00, -1.03779604E-02,
 		 1.83235982E-05, -9.63187224E-09, 1.70473021E-12,
 		 -1.17590477E+04, -2.52561043E+01]), 
		 ))

species(name = "CN",
	atoms = " C:1 N:1",
	thermo = (
		NASA( [300.0, 1000.0], [3.83457262E+00, -2.53180557E-03,
 		 6.02372319E-06, -4.46123857E-09, 1.12429554E-12,
 		 4.62432347E+04, 3.06559931E+00]), 
		NASA( [1000.0, 2000.0], [3.98401258E+00, -1.45674958E-03,
 		 2.62187972E-06, -1.41531877E-09, 2.55723255E-13,
 		 4.61024491E+04, 1.86100685E+00]), 
		 ))

species(name = "CNH",
	atoms = " H:1 C:1 N:1",
	thermo = (
		NASA( [300.0, 1000.0], [3.93993949E+00, 3.61289856E-03,
 		 -5.38856097E-06, 5.49022204E-09, -2.05797922E-12,
 		 1.80506512E+04, -7.33390403E-01]), 
		NASA( [1000.0, 2000.0], [5.58890746E+00, -2.50742367E-03,
 		 4.32735625E-06, -2.18731417E-09, 3.74994029E-13,
 		 1.76559947E+04, -8.91075856E+00]), 
		 ))

species(name = "CNH2",
	atoms = " H:2 C:1 N:1",
	thermo = (
		NASA( [300.0, 1000.0], [2.86013318E+00, 5.52467674E-03,
 		 3.13264823E-06, -6.94659574E-09, 2.96071501E-12,
 		 3.71548360E+04, 1.27743861E+01]), 
		NASA( [1000.0, 2000.0], [7.52018782E+00, -5.64371595E-03,
 		 9.96320931E-06, -5.23481265E-09, 9.26708898E-13,
 		 3.57809794E+04, -1.17251116E+01]), 
		 ))

species(name = "CO",
	atoms = " C:1 O:1",
	thermo = (
		NASA( [300.0, 1000.0], [3.82554092E+00, -2.44305678E-03,
 		 5.74397160E-06, -4.15861029E-09, 1.01475946E-12,
 		 -2.31566234E+04, 2.52026189E+00]), 
		NASA( [1000.0, 2000.0], [3.97703009E+00, -1.46328395E-03,
 		 2.63155983E-06, -1.41878725E-09, 2.56086184E-13,
 		 -2.32937496E+04, 1.32663879E+00]), 
		 ))

species(name = "COH",
	atoms = " H:1 C:1 O:1",
	thermo = (
		NASA( [300.0, 1000.0], [3.50704434E+00, 1.05894779E-03,
 		 6.56765897E-06, -8.67213042E-09, 3.34239125E-12,
 		 1.29753673E+04, 6.55455270E+00]), 
		NASA( [1000.0, 2000.0], [5.79906230E+00, -2.98410258E-03,
 		 5.30422952E-06, -2.81887744E-09, 5.03600123E-13,
 		 1.22304627E+04, -5.84476789E+00]), 
		 ))

species(name = "H2C-CH",
	atoms = " H:3 C:2",
	thermo = (
		NASA( [300.0, 1000.0], [3.01383673E+00, 1.20850156E-02,
 		 -7.75498320E-06, 2.56594394E-09, -1.88123822E-13,
 		 2.90830772E+04, 9.78050311E+00]), 
		NASA( [1000.0, 2000.0], [9.70409362E+00, -7.43372799E-03,
 		 1.31112227E-05, -6.87430421E-09, 1.21440508E-12,
 		 2.72763464E+04, -2.45523965E+01]), 
		 ))

species(name = "H2C-CH3",
	atoms = " H:5 C:2",
	thermo = (
		NASA( [300.0, 1000.0], [2.64391262E+00, 1.23053390E-02,
 		 7.47042045E-06, -1.54008672E-08, 6.37996947E-12,
 		 1.00513472E+04, 1.20611588E+01]), 
		NASA( [1000.0, 2000.0], [1.33696059E+01, -1.34449566E-02,
 		 2.38267054E-05, -1.25911557E-08, 2.23857533E-12,
 		 6.87455771E+03, -4.43583741E+01]), 
		 ))

species(name = "H2C-NH",
	atoms = " H:3 C:1 N:1",
	thermo = (
		NASA( [300.0, 1000.0], [3.05037377E+00, 1.23401831E-04,
 		 2.39659776E-05, -2.83332949E-08, 1.04155998E-11,
 		 6.31789058E+03, 9.07697232E+00]), 
		NASA( [1000.0, 2000.0], [9.20576574E+00, -9.22168394E-03,
 		 1.63668696E-05, -8.67569371E-09, 1.54680049E-12,
 		 4.22743708E+03, -2.46336631E+01]), 
		 ))

species(name = "H2C-NH2",
	atoms = " H:4 C:1 N:1",
	thermo = (
		NASA( [300.0, 1000.0], [1.53263406E+00, 1.91723157E-02,
 		 -1.39928642E-05, 4.98653317E-09, -3.48072265E-13,
 		 1.30862953E+04, 1.53917390E+01]), 
		NASA( [1000.0, 2000.0], [1.13288146E+01, -9.86156910E-03,
 		 1.72998843E-05, -8.99606551E-09, 1.57948226E-12,
 		 1.04862799E+04, -3.47113903E+01]), 
		 ))

species(name = "H2C-O",
	atoms = " H:2 C:1 O:1",
	thermo = (
		NASA( [300.0, 1000.0], [4.14160763E+00, -5.14976539E-03,
 		 2.53476008E-05, -2.54929498E-08, 8.58354273E-12,
 		 -2.43826750E+04, 4.03276360E+00]), 
		NASA( [1000.0, 2000.0], [7.41457550E+00, -6.85822264E-03,
 		 1.22623054E-05, -6.56931586E-09, 1.18069361E-12,
 		 -2.56899878E+04, -1.47821582E+01]), 
		 ))

species(name = "H2C-OH",
	atoms = " H:3 C:1 O:1",
	thermo = (
		NASA( [300.0, 1000.0], [2.33577642E+00, 1.33708549E-02,
 		 -7.58249404E-06, 4.54151028E-10, 9.96622923E-13,
 		 -1.31003130E+04, 1.19944677E+01]), 
		NASA( [1000.0, 2000.0], [9.56057277E+00, -7.21021223E-03,
 		 1.26422303E-05, -6.57137691E-09, 1.15369731E-12,
 		 -1.50511835E+04, -2.51413785E+01]), 
		 ))

species(name = "H3C-NH2",
	atoms = " H:5 C:1 N:1",
	thermo = (
		NASA( [300.0, 1000.0], [2.58691033E+00, 6.97014103E-03,
 		 2.10372207E-05, -2.85378504E-08, 1.09043200E-11,
 		 -4.78314904E+03, 1.14700968E+01]), 
		NASA( [1000.0, 2000.0], [1.29333097E+01, -1.40932113E-02,
 		 2.49247757E-05, -1.31351169E-08, 2.33098436E-12,
 		 -8.02974020E+03, -4.38716340E+01]), 
		 ))

species(name = "H3C-OH",
	atoms = " H:4 C:1 O:1",
	thermo = (
		NASA( [300.0, 1000.0], [3.29968183E+00, 2.59640955E-03,
 		 2.38038377E-05, -2.95807634E-08, 1.10638911E-11,
 		 -3.28466734E+04, 8.35558841E+00]), 
		NASA( [1000.0, 2000.0], [1.11629122E+01, -1.12362395E-02,
 		 1.98753808E-05, -1.04800163E-08, 1.86101964E-12,
 		 -3.54187061E+04, -3.42310029E+01]), 
		 ))

species(name = "HC-C",
	atoms = " H:1 C:2",
	thermo = (
		NASA( [300.0, 1000.0], [3.66896855E+00, 3.87796544E-03,
 		 -3.19390687E-06, 2.04168749E-09, -6.11344309E-13,
 		 6.18989401E+04, 4.11151621E+00]), 
		NASA( [1000.0, 2000.0], [5.77641001E+00, -2.56212925E-03,
 		 4.49199165E-06, -2.33143763E-09, 4.08535525E-13,
 		 6.13388852E+04, -6.64628976E+00]), 
		 ))

species(name = "HC-CH2",
	atoms = " H:3 C:2",
	thermo = (
		NASA( [300.0, 1000.0], [1.24953630E+00, 1.68271757E-02,
 		 -1.30525576E-05, 5.23344996E-09, -6.52668891E-13,
 		 2.97875836E+04, 1.65337609E+01]), 
		NASA( [1000.0, 2000.0], [9.58550371E+00, -7.99513557E-03,
 		 1.41539484E-05, -7.46440839E-09, 1.32502732E-12,
 		 2.75728618E+04, -2.60918083E+01]), 
		 ))

species(name = "HC-CH3",
	atoms = " H:4 C:2",
	thermo = (
		NASA( [300.0, 1000.0], [1.83433789E+00, 1.41712388E-02,
 		 -6.48565722E-07, -7.19505325E-09, 3.50021574E-12,
 		 3.60999591E+04, 1.37997930E+01]), 
		NASA( [1000.0, 2000.0], [1.16348290E+01, -1.10036676E-02,
 		 1.96014909E-05, -1.04373519E-08, 1.86687305E-12,
 		 3.32741455E+04, -3.73606215E+01]), 
		 ))

species(name = "HCN",
	atoms = " H:1 C:1 N:1",
	thermo = (
		NASA( [300.0, 1000.0], [3.40481885E+00, 4.72636823E-03,
 		 -6.41045632E-06, 6.03319512E-09, -2.18161947E-12,
 		 1.12140568E+04, 1.81039625E+00]), 
		NASA( [1000.0, 2000.0], [5.56329946E+00, -2.96983175E-03,
 		 5.19671961E-06, -2.68690776E-09, 4.69026854E-13,
 		 1.06845140E+04, -8.96320821E+00]), 
		 ))

species(name = "HCNH",
	atoms = " H:2 C:1 N:1",
	thermo = (
		NASA( [300.0, 1000.0], [2.54147970E+00, 7.08917491E-03,
 		 3.48421301E-07, -4.64338159E-09, 2.23550518E-12,
 		 2.58744003E+04, 1.09379929E+01]), 
		NASA( [1000.0, 2000.0], [7.55908029E+00, -5.69715809E-03,
 		 1.00812261E-05, -5.31556780E-09, 9.43618969E-13,
 		 2.44321217E+04, -1.52553998E+01]), 
		 ))

species(name = "HCNH2",
	atoms = " H:3 C:1 N:1",
	thermo = (
		NASA( [300.0, 1000.0], [2.63229195E+00, 4.24022930E-03,
 		 1.47074899E-05, -2.00594258E-08, 7.74032401E-12,
 		 2.37510432E+04, 1.06473216E+01]), 
		NASA( [1000.0, 2000.0], [9.24495360E+00, -8.74824228E-03,
 		 1.54765501E-05, -8.16179160E-09, 1.44943954E-12,
 		 2.16600323E+04, -2.48205423E+01]), 
		 ))

species(name = "HCO",
	atoms = " H:1 C:1 O:1",
	thermo = (
		NASA( [300.0, 1000.0], [4.01514831E+00, -1.69615112E-03,
 		 9.79316392E-06, -9.29148673E-09, 2.91006433E-12,
 		 -8.02980081E+03, 4.29202311E+00]), 
		NASA( [1000.0, 2000.0], [5.72027076E+00, -3.53716592E-03,
 		 6.35054772E-06, -3.41994219E-09, 6.17028349E-13,
 		 -8.67615606E+03, -5.30814509E+00]), 
		 ))

species(name = "HCOH",
	atoms = " H:2 C:1 O:1",
	thermo = (
		NASA( [300.0, 1000.0], [3.26400560E+00, 3.53702753E-04,
 		 1.67225273E-05, -2.05331403E-08, 7.72353557E-12,
 		 2.35254768E+03, 7.82719072E+00]), 
		NASA( [1000.0, 2000.0], [7.52153408E+00, -5.88291932E-03,
 		 1.04285494E-05, -5.52017738E-09, 9.83644115E-13,
 		 9.06060425E+02, -1.55185112E+01]), 
		 ))



       

       
species(name = "Pt_ads",
    atoms = " Pt:1 ",
    thermo = (
       NASA( [  300.00,  1000.00], [  0.000000000E+00,   0.000000000E+00,
                0.000000000E+00,   0.000000000E+00,   0.000000000E+00,
                0.000000000E+00,   0.000000000E+00] ),
       NASA( [ 1000.00,  3000.00], [  0.000000000E+00,   0.000000000E+00,
                0.000000000E+00,   0.000000000E+00,   0.000000000E+00,
                0.000000000E+00,   0.000000000E+00] ),
             ))
             
species(name = "CO2_ads",
	atoms = " C:1  O:2  Pt:1 ",
	thermo = (
		NASA( [  300.00,  1000.00], [  4.690000000E-01,   6.266200000E-03,
		0.000000000E+00,   0.000000000E+00,   0.000000000E+00,
		-5.045870000E+04,  -4.555000000E+00] ),
		NASA( [ 1000.00,  3000.00], [  4.690000000E-01,   6.266000000E-03,
		0.000000000E+00,   0.000000000E+00,   0.000000000E+00,
		-5.045870000E+04,  -4.555000000E+00] ),
		))

          
species(name = "H_ads",
	atoms = " H:1 Pt:1",
	size = 1,
	thermo = (
		NASA( [300.0, 1000.0], [-1.96702988E+00, 1.67920714E-02,
 		 -2.50314139E-05, 1.80485455E-08, -5.11491544E-12,
 		 -3.20314847E+03, 7.68211258E+00]), 
		NASA( [1000.0, 2000.0], [2.71967853E+00, -1.07695690E-03,
 		 2.00192303E-06, -1.12865539E-09, 2.11268430E-13,
 		 -4.23739158E+03, -1.52793080E+01]), 
		),
	note = 'DFT binding energy: -0.24 eV'
	       'Linear scaling parameters: psi = 0.00000 eV, gamma_H(X) = 1.000'
	)
    
       
species(name = "H2_ads",
	atoms = " H:2 Pt:1",
	size = 1,
	thermo = (
		NASA( [300.0, 1000.0], [3.78935111E+00, 1.10148021E-03,
 		 -2.31320100E-06, 2.11937826E-09, -6.31350007E-13,
 		 -1.86700333E+03, -1.00616465E+01]), 
		NASA( [1000.0, 2000.0], [4.06700208E+00, -5.01780683E-04,
 		 6.70739475E-07, -1.79171220E-10, 8.86891237E-15,
 		 -1.89107710E+03, -1.12621724E+01]), 
		 ),
	note = 'DFT binding energy: -0.05 eV'
	       'Linear scaling parameters: psi = -0.05448 eV, gamma_H(X) = 0.000'
	       'The two lowest frequencies, 14.0 and 24.4 cm-1, where replaced by the 2D gas model.'
	)


species(name = "H2O_ads",
	atoms = " H:2 Pt:1 O:1",
	size = 1,
	thermo = (
		NASA( [300.0, 1000.0], [2.53777266E+00, 9.45372010E-03,
 		 -1.41325664E-05, 1.16730945E-08, -3.67657640E-12,
 		 -3.84551454E+04, -5.36548562E+00]), 
		NASA( [1000.0, 2000.0], [5.84789465E+00, -3.31526816E-03,
 		 5.62018785E-06, -2.75864893E-09, 4.61279067E-13,
 		 -3.91846599E+04, -2.15622699E+01]), 
		 ),
	note = 'DFT binding energy: -0.19 eV'
	       'Linear scaling parameters: psi = -0.18932 eV, gamma_O(X) = 0.000'
	       'The two lowest frequencies, 49.5 and 68.6 cm-1, where replaced by the 2D gas model.'
	)

species(name = "OH_ads",
	atoms = " H:1 Pt:1 O:1",
	size = 1,
	thermo = (
		NASA( [300.0, 1000.0], [1.07348583E+00, 1.72652206E-02,
 		 -3.17712232E-05, 2.71536568E-08, -8.69448957E-12,
 		 -2.52975927E+04, -5.65622337E+00]), 
		NASA( [1000.0, 2000.0], [5.01871021E+00, -1.35425263E-03,
 		 2.27687301E-06, -1.09407742E-09, 1.79397222E-13,
 		 -2.59952897E+04, -2.41160031E+01]), 
		 ),
	note = 'DFT binding energy: -1.97 eV'
	       'Linear scaling parameters: psi = -1.45958 eV, gamma_O(X) = 0.500'
	)

species(name = "HO-OH_ads",
	atoms = " H:2 Pt:1 O:2",
	size = 1,
	thermo = (
		NASA( [300.0, 1000.0], [2.83724199E+00, 1.40375175E-02,
 		 -1.46380418E-05, 8.15474903E-09, -1.74266504E-12,
 		 -3.66607015E+04, -5.58358716E+00]), 
		NASA( [1000.0, 2000.0], [8.63867305E+00, -4.64979340E-03,
 		 8.11018769E-06, -4.17892337E-09, 7.28657731E-13,
 		 -3.81120667E+04, -3.48518636E+01]), 
		 ),
	note = 'DFT binding energy: -0.29 eV'
	       'Linear scaling parameters: psi = -0.28574 eV, gamma_O(X) = 0.000'
	       'The two lowest frequencies, 10.6 and 50.4 cm-1, where replaced by the 2D gas model.'
	)

species(name = "O2_ads",
	atoms = " Pt:2 O:2",