units(length='cm', time='s', quantity='mol', act_energy='kcal/mol')

ideal_gas(name='gas',
          elements="H D T C Ci O Oi N Ne Ar He Si S Cl X",
          species="""n-heptane   Ar          He          Ne
                     N2          C2H4(2)     C4H8-1(3)   C4H8-2(4)
                     C4H6(7)     C6H8(9)     C8H10(78)   C2H6(135)
                     C4H10(141)  C3H8(142)   C6H12(149)  C8H14(152)
                     C8H14(156)  C6H14(157)  C8H18(158)  C6H10(193)
                     C8H12(200)  C8H16(201)  C8H14(204)  C8H12(243)
                     C6H12(248)  C8H16(249)  C6H12(270)  C8H16(271)
                     C6H12(291)  C8H16(292)  C6H12(316)  C8H16(317)
                     C7H14(849)  S(1153)     S(1156)     S(1341)
                     S(1342)     S(1345)     S(1580)     C5H8(1788)
                     S(2211)     S(2496)     S(4005)     S(4300)
                     S(4356)""",
          reactions='gas-*',
          initial_state=state(temperature=300.0, pressure=OneAtm))

ideal_interface(name='surface1',
                elements="H D T C Ci O Oi N Ne Ar He Si S Cl X",
                species="""X(1)        HX(5)       C2H3X(27)   allylX(28)
                          CH3X(29)    C2H5X(30)   C4H7X(31)   C4H7X(32)
                          C4H7X(33)   C4H7X(34)   C3H5X(35)   C4H9X(44)
                          C4H9X(45)   C2H2X(49)   C4H5X(56)   C4H5X(57)
                          C6H9X(65)   C6H9X(66)   C6H9X(72)   C6H7X(84)
                          C6H7X(85)   C6H7X(86)   C6H9X(97)   C6H9X(118)
                          CH2X(130)   SX(132)     SX(134)     SX(145)
                          SX(150)     SX(151)     SX(163)     SX(164)
                          SX(171)     SX(172)     C6H9X(207)  C6H9X(208)
                          C3H4X(234)  C4H7X(258)  SX(281)     SX(282)
                          C3H5X(301)  C4H6X(302)  SX(342)     SX(548)
                          C6H7X(577)  SX(612)     SX(671)     SX(801)
                          SX(802)     SX(855)     SX(857)     SX(858)
                          C6H9X(923)  SX(1024)    SX(1065)    SX(1068)
                          SX(1071)    SX(1138)    SX(1141)    SX(1247)
                          SX(1301)    SX(1304)    SX(1305)    SX(1331)
                          SX(1513)    SX(1514)    SX(1631)    SX(1635)
                          SX(1636)    CHX(1848)   SX(1908)    SX(2078)
                          SX(2420)    SX(2446)    SX(2869)    SX(2919)
                          SX(2999)    SX(3027)    SX(3082)    SX(3111)
                          SX(3721)    SX(4357)""",
                site_density=2.72e-09,
                phases="gas",
          reactions='surface1-*',
                initial_state=state(temperature=300.0, pressure=OneAtm))

#-------------------------------------------------------------------------------
# Element data
#-------------------------------------------------------------------------------

element(symbol=u'X', atomic_mass=195.083)
element(symbol=u'Ci', atomic_mass=13.003)
element(symbol=u'D', atomic_mass=2.014)
element(symbol=u'Oi', atomic_mass=18.0)
element(symbol=u'T', atomic_mass=3.016)
#-------------------------------------------------------------------------------
# Species data
#-------------------------------------------------------------------------------

species(name=u'n-heptane',
        atoms='H:16 C:7',
        thermo=(NASA([100.00, 1262.73],
                     [-2.91681405E-03,  7.69373649E-02, -3.48025563E-05,
                       1.86095180E-09,  2.01573617E-12, -2.57829342E+04,
                       3.00312148E+01]),
                NASA([1262.73, 5000.00],
                     [ 1.38377915E+01,  4.85945016E-02, -1.95474548E-05,
                       3.52837178E-09, -2.39064676E-13, -3.05141556E+04,
                      -4.48642836E+01])))

species(name=u'Ar',
        atoms='Ar:1',
        thermo=(NASA([200.00, 1000.00],
                     [ 2.50000000E+00,  0.00000000E+00,  0.00000000E+00,
                       0.00000000E+00,  0.00000000E+00, -7.45375000E+02,
                       4.37967000E+00]),
                NASA([1000.00, 6000.00],
                     [ 2.50000000E+00,  0.00000000E+00,  0.00000000E+00,
                       0.00000000E+00,  0.00000000E+00, -7.45375000E+02,
                       4.37967000E+00])))

species(name=u'He',
        atoms='He:1',
        thermo=(NASA([200.00, 1000.00],
                     [ 2.50000000E+00,  0.00000000E+00,  0.00000000E+00,
                       0.00000000E+00,  0.00000000E+00, -7.45375000E+02,
                       9.28724000E-01]),
                NASA([1000.00, 6000.00],
                     [ 2.50000000E+00,  0.00000000E+00,  0.00000000E+00,
                       0.00000000E+00,  0.00000000E+00, -7.45375000E+02,
                       9.28724000E-01])))

species(name=u'Ne',
        atoms='Ne:1',
        thermo=(NASA([200.00, 1000.00],
                     [ 2.50000000E+00,  0.00000000E+00,  0.00000000E+00,
                       0.00000000E+00,  0.00000000E+00, -7.45375000E+02,
                       3.35532000E+00]),
                NASA([1000.00, 6000.00],
                     [ 2.50000000E+00,  0.00000000E+00,  0.00000000E+00,
                       0.00000000E+00,  0.00000000E+00, -7.45375000E+02,
                       3.35532000E+00])))

species(name=u'N2',
        atoms='N:2',
        thermo=(NASA([200.00, 1000.00],
                     [ 3.53101000E+00, -1.23661000E-04, -5.02999000E-07,
                       2.43531000E-09, -1.40881000E-12, -1.04698000E+03,
                       2.96747000E+00]),
                NASA([1000.00, 6000.00],
                     [ 2.95258000E+00,  1.39690000E-03, -4.92632000E-07,
                       7.86010000E-11, -4.60755000E-15, -9.23949000E+02,
                       5.87189000E+00])))

species(name=u'C2H4(2)',
        atoms='H:4 C:2',
        thermo=(NASA([100.00, 979.36],
                     [ 3.97471606E+00, -4.75844285E-03,  4.16783770E-05,
                      -4.51392516E-08,  1.54224761E-11,  4.91540746E+03,
                       3.62430844E+00]),
                NASA([979.36, 5000.00],
                     [ 3.55660610E+00,  1.10627464E-02, -4.17019079E-06,
                       7.85586770E-10, -5.70060829E-14,  4.32046489E+03,
                       2.17719479E+00])))

species(name=u'C4H8-1(3)',
        atoms='H:8 C:4',
        thermo=(NASA([100.00, 1007.28],
                     [ 2.58772906E+00,  2.32777969E-02,  1.93412349E-05,
                      -3.55496333E-08,  1.36906009E-11, -1.91872926E+03,
                       1.45750618E+01]),
                NASA([1007.28, 5000.00],
                     [ 7.20517168E+00,  2.36361568E-02, -9.03150028E-06,
                       1.65392666E-09, -1.16019260E-13, -3.79733937E+03,
                      -1.24426257E+01])))

species(name=u'C4H8-2(4)',
        atoms='H:8 C:4',
        thermo=(NASA([100.00, 1157.79],
                     [ 2.51998327E+00,  2.76812799E-02,  9.43783469E-07,
                      -1.25009101E-08,  4.67144666E-12, -3.34374767E+03,
                       1.30195623E+01]),
                NASA([1157.79, 5000.00],
                     [ 6.04225708E+00,  2.60072350E-02, -1.04843374E-05,
                       1.90880922E-09, -1.30600505E-13, -4.86276511E+03,
                      -7.52715109E+00])))

species(name=u'C4H6(7)',
        atoms='H:6 C:4',
        thermo=(NASA([100.00, 946.05],
                     [ 2.80599310E+00,  1.02584471E-02,  6.17260255E-05,
                      -9.01642687E-08,  3.59116961E-11,  1.16584972E+04,
                       1.20621434E+01]),
                NASA([946.05, 5000.00],
                     [ 1.24693720E+01,  1.00553901E-02, -2.41206872E-06,
                       4.57077303E-10, -3.93160571E-14,  8.01077795E+03,
                      -4.36374720E+01])))

species(name=u'C6H8(9)',
        atoms='H:8 C:6',
        thermo=(NASA([100.00, 941.22],
                     [ 1.38427980E+00,  4.14411503E-02,  1.94287417E-05,
                      -6.16688700E-08,  2.86503633E-11,  1.76317461E+04,
                       1.93257509E+01]),
                NASA([941.22, 5000.00],
                     [ 1.69619680E+01,  1.57221707E-02, -4.10118367E-06,
                       6.95736344E-10, -5.26521484E-14,  1.29061672E+04,
                      -6.44097553E+01])))

species(name=u'C8H10(78)',
        atoms='H:10 C:8',
        thermo=(NASA([100.00, 941.38],
                     [ 8.64508879E-02,  6.59507123E-02,  1.49007776E-06,
                      -6.06862449E-08,  3.13845046E-11,  2.39088929E+04,
                       2.66192822E+01]),
                NASA([941.38, 5000.00],
                     [ 2.28417755E+01,  1.96704891E-02, -5.08803462E-06,
                       8.53682038E-10, -6.42382395E-14,  1.73909786E+04,
                      -9.36509497E+01])))

species(name=u'C2H6(135)',
        atoms='H:6 C:2',
        thermo=(NASA([100.00, 1012.42],
                     [ 3.72239291E+00,  1.65083841E-03,  3.44175530E-05,
                      -3.76858229E-08,  1.24450657E-11, -1.15575901E+04,
                       4.68247999E+00]),
                NASA([1012.42, 5000.00],
                     [ 2.82848257E+00,  1.73040568E-02, -6.73334245E-06,
                       1.23742024E-09, -8.65676410E-14, -1.19978080E+04,
                       5.93811707E+00])))

species(name=u'C4H10(141)',
        atoms='H:10 C:4',
        thermo=(NASA([100.00, 1147.60],
                     [ 2.16918413E+00,  3.43904632E-02, -1.61564236E-06,
                      -1.30726562E-08,  5.17350451E-12, -1.72505136E+04,
                       1.46546701E+01]),
                NASA([1147.60, 5000.00],
                     [ 6.78903089E+00,  3.03598162E-02, -1.21262050E-05,
                       2.19945025E-09, -1.50289312E-13, -1.91057969E+04,
                      -1.17329103E+01])))

species(name=u'C3H8(142)',
        atoms='H:8 C:3',
        thermo=(NASA([100.00, 989.99],
                     [ 3.06336167E+00,  1.29214561E-02,  3.47032808E-05,
                      -4.70946154E-08,  1.71384141E-11, -1.43905789E+04,
                       1.07835592E+01]),
                NASA([989.99, 5000.00],
                     [ 5.60440043E+00,  2.19528785E-02, -8.22080610E-06,
                       1.50103993E-09, -1.05635358E-13, -1.58394038E+04,
                      -6.22623300E+00])))

species(name=u'C6H12(149)',
        atoms='H:12 C:6',
        thermo=(NASA([100.00, 2065.44],
                     [ 1.68598658E+00,  5.58664307E-02, -2.53057821E-05,
                       3.98016615E-09, -6.94904807E-14, -7.81739466E+03,
                       2.09919882E+01]),
                NASA([2065.44, 5000.00],
                     [ 2.13486140E+01,  2.79136045E-02, -1.23596487E-05,
                       2.17527434E-09, -1.38347372E-13, -1.80997789E+04,
                      -9.33598720E+01])))

species(name=u'C8H14(152)',
        atoms='H:14 C:8',
        thermo=(NASA([100.00, 1032.47],
                     [-1.52197289E-01,  7.68454143E-02, -2.34614456E-05,
                      -2.05041347E-08,  1.22957650E-11, -1.31857568E+03,
                       3.21075857E+01]),
                NASA([1032.47, 5000.00],
                     [ 1.66387280E+01,  4.18183293E-02, -1.61931864E-05,
                       2.96808824E-09, -2.07607085E-13, -6.38610066E+03,
                      -5.71853008E+01])))

species(name=u'C8H14(156)',
        atoms='H:14 C:8',
        thermo=(NASA([100.00, 1031.59],
                     [-3.24308169E-01,  8.09803459E-02, -3.24425386E-05,
                      -1.31536671E-08,  1.01843255E-11, -1.50090156E+03,
                       3.15196958E+01]),
                NASA([1031.59, 5000.00],
                     [ 1.73697073E+01,  4.09232311E-02, -1.57129317E-05,
                       2.86474556E-09, -1.99759457E-13, -6.67068809E+03,
                      -6.17573781E+01])))

species(name=u'C6H14(157)',
        atoms='H:14 C:6',
        thermo=(NASA([100.00, 1048.16],
                     [ 8.83603407E-01,  5.70449582E-02, -2.15511769E-06,
                      -2.85512365E-08,  1.26618641E-11, -2.27982664E+04,
                       2.50352381E+01]),
                NASA([1048.16, 5000.00],
                     [ 1.11354266E+01,  4.25244017E-02, -1.65829595E-05,
                       3.01864905E-09, -2.09013581E-13, -2.62988561E+04,
                      -3.13529752E+01])))

species(name=u'C8H18(158)',
        atoms='H:18 C:8',
        thermo=(NASA([100.00, 1950.39],
                     [-8.85253472E-01,  9.40525134E-02, -5.49401942E-05,
                       1.58319910E-08, -1.84186830E-12, -2.86089074E+04,
                       3.54764932E+01]),
                NASA([1950.39, 5000.00],
                     [ 2.30699897E+01,  4.49237816E-02, -1.71567286E-05,
                       2.91725571E-09, -1.86477663E-13, -3.79533974E+04,
                      -9.60967099E+01])))

species(name=u'C6H10(193)',
        atoms='H:10 C:6',
        thermo=(NASA([100.00, 1036.89],
                     [ 1.50874221E+00,  4.27939676E-02,  1.00407781E-05,
                      -3.76644958E-08,  1.56320088E-11,  7.74480595E+03,
                       2.33493905E+01]),
                NASA([1036.89, 5000.00],
                     [ 1.16601041E+01,  3.10397815E-02, -1.26024374E-05,
                       2.38495409E-09, -1.70150727E-13,  4.16633351E+03,
                      -3.30972272E+01])))

species(name=u'C8H12(200)',
        atoms='H:12 C:8',
        thermo=(NASA([100.00, 1002.94],
                     [ 1.69489980E-02,  7.28189377E-02, -2.16585698E-05,
                      -2.40807783E-08,  1.44597041E-11,  1.38562447E+04,
                       3.07679077E+01]),
                NASA([1002.94, 5000.00],
                     [ 1.77276883E+01,  3.45993801E-02, -1.29781828E-05,
                       2.37500136E-09, -1.67643536E-13,  8.67334638E+03,
                      -6.28559377E+01])))

species(name=u'C8H16(201)',
        atoms='H:16 C:8',
        thermo=(NASA([100.00, 1248.81],
                     [-4.26647485E-01,  8.49512374E-02, -4.26977778E-05,
                       5.19306335E-09,  1.55005691E-12, -1.32580173E+04,
                       3.49638273E+01]),
                NASA([1248.81, 5000.00],
                     [ 1.57326579E+01,  4.96311262E-02, -2.00187569E-05,
                       3.62701466E-09, -2.46632049E-13, -1.85758476E+04,
                      -5.17182159E+01])))

species(name=u'C8H14(204)',
        atoms='H:14 C:8',
        thermo=(NASA([100.00, 1131.55],
                     [-3.85809817E-02,  7.63741971E-02, -3.10952919E-05,
                      -5.90347867E-09,  5.52756901E-12,  2.09688836E+03,
                       3.33418113E+01]),
                NASA([1131.55, 5000.00],
                     [ 1.48574659E+01,  4.52274824E-02, -1.83215003E-05,
                       3.37064281E-09, -2.33159586E-13, -2.65132869E+03,
                      -4.64489898E+01])))

species(name=u'C8H12(243)',
        atoms='H:12 C:8',
        thermo=(NASA([100.00, 1066.82],
                     [-6.90279206E-02,  7.77631354E-02, -4.25469002E-05,
                       2.07979121E-09,  4.19202863E-12,  1.30198536E+04,
                       2.96530167E+01]),
                NASA([1066.82, 5000.00],
                     [ 1.62725496E+01,  3.71185641E-02, -1.44020029E-05,
                       2.61623348E-09, -1.80996976E-13,  8.35933475E+03,
                      -5.57441245E+01])))

species(name=u'C6H12(248)',
        atoms='H:12 C:6',
        thermo=(NASA([100.00, 1018.92],
                     [ 1.21827324E+00,  4.88303598E-02,  8.49335826E-06,
                      -3.91899735E-08,  1.67107196E-11, -8.55522126E+03,
                       2.43074946E+01]),
                NASA([1018.92, 5000.00],
                     [ 1.16698119E+01,  3.59250755E-02, -1.39120664E-05,
                       2.55991991E-09, -1.79822160E-13, -1.21450086E+04,
                      -3.34751762E+01])))

species(name=u'C8H16(249)',
        atoms='H:16 C:8',
        thermo=(NASA([100.00, 1101.74],
                     [-3.02651568E-01,  8.10186813E-02, -2.80330966E-05,
                      -1.21354914E-08,  8.02001340E-12, -1.42199976E+04,
                       3.42611998E+01]),
                NASA([1101.74, 5000.00],
                     [ 1.51381607E+01,  5.00380884E-02, -1.99984150E-05,
                       3.66389588E-09, -2.53403166E-13, -1.91444395E+04,
                      -4.86355338E+01])))

species(name=u'C6H12(270)',
        atoms='H:12 C:6',
        thermo=(NASA([100.00, 1083.88],
                     [ 1.36789859E+00,  4.60332170E-02,  1.03872042E-05,
                      -3.61548644E-08,  1.41144370E-11, -9.21215455E+03,
                       2.36685346E+01]),
                NASA([1083.88, 5000.00],
                     [ 1.07762218E+01,  3.82405519E-02, -1.60946813E-05,
                       3.05489613E-09, -2.16276948E-13, -1.28334192E+04,
                      -2.97757608E+01])))

species(name=u'C8H16(271)',
        atoms='H:16 C:8',
        thermo=(NASA([100.00, 1183.71],
                     [-4.57484247E-01,  8.53298559E-02, -4.14911564E-05,
                       2.43658544E-09,  2.82059943E-12, -1.49572294E+04,
                       3.42485540E+01]),
                NASA([1183.71, 5000.00],
                     [ 1.56630838E+01,  4.95614656E-02, -1.98700854E-05,
                       3.61010089E-09, -2.46884424E-13, -2.00841813E+04,
                      -5.17783763E+01])))

species(name=u'C6H12(291)',
        atoms='H:12 C:6',
        thermo=(NASA([100.00, 1839.14],
                     [ 7.39766525E-01,  6.35836379E-02, -3.85035731E-05,
                       1.16726754E-08, -1.43915861E-12, -9.53996498E+03,
                       2.35193792E+01]),
                NASA([1839.14, 5000.00],
                     [ 1.56639911E+01,  3.11245214E-02, -1.20299805E-05,
                       2.07631491E-09, -1.34696441E-13, -1.50295162E+04,
                      -5.75746881E+01])))

species(name=u'C8H16(292)',
        atoms='H:16 C:8',
        thermo=(NASA([100.00, 1159.54],
                     [-2.62017588E-01,  8.09409885E-02, -3.17241123E-05,
                      -5.78609059E-09,  5.24173243E-12, -1.45998207E+04,
                       3.45952444E+01]),
                NASA([1159.54, 5000.00],
                     [ 1.46809128E+01,  5.08555978E-02, -2.05692853E-05,
                       3.76328327E-09, -2.58751019E-13, -1.95080498E+04,
                      -4.59292848E+01])))

species(name=u'C6H12(316)',
        atoms='H:12 C:6',
        thermo=(NASA([100.00, 3144.72],
                     [ 1.62486600E+00,  5.81706891E-02, -2.94074668E-05,
                       6.41453677E-09, -5.27511383E-13, -9.95070725E+03,
                       2.05730324E+01]),
                NASA([3144.72, 5000.00],
                     [ 2.63049846E+01,  2.09689465E-02, -8.89163385E-06,
                       1.47783715E-09, -8.83519412E-14, -2.26006402E+04,
                      -1.22203751E+02])))

species(name=u'C8H16(317)',
        atoms='H:16 C:8',
        thermo=(NASA([100.00, 1809.61],
                     [-5.44057517E-01,  8.90393203E-02, -5.45822200E-05,
                       1.67861911E-08, -2.10317104E-12, -1.50921832E+04,
                       3.39095225E+01]),
                NASA([1809.61, 5000.00],
                     [ 1.99433691E+01,  4.37534683E-02, -1.70444089E-05,
                       2.95712584E-09, -1.92666931E-13, -2.25070314E+04,
                      -7.70817871E+01])))

species(name=u'C7H14(849)',
        atoms='H:14 C:7',
        thermo=(NASA([100.00, 1300.42],
                     [ 1.83786614E-01,  7.34566979E-02, -3.86623385E-05,
                       6.98526361E-09,  4.17467271E-13, -1.22586059E+04,
                       2.90408371E+01]),
                NASA([1300.42, 5000.00],
                     [ 1.41904082E+01,  4.25138374E-02, -1.69743974E-05,
                       3.04599814E-09, -2.05395047E-13, -1.69280361E+04,
                      -4.61593110E+01])))

species(name=u'S(1153)',
        atoms='H:18 C:10',
        thermo=(NASA([100.00, 1055.28],
                     [-1.59605023E+00,  1.05530275E-01, -4.62513503E-05,
                      -1.03661215E-08,  1.02213164E-11, -7.94309563E+03,
                       4.15354110E+01]),
                NASA([1055.28, 5000.00],
                     [ 2.06863788E+01,  5.45143644E-02, -2.12752734E-05,
                       3.88789169E-09, -2.70316502E-13, -1.45081741E+04,
                      -7.59867816E+01])))

species(name=u'S(1156)',
        atoms='H:16 C:10',
        thermo=(NASA([100.00, 1025.84],
                     [-1.24619703E+00,  9.72808915E-02, -3.52285872E-05,
                      -2.14929919E-08,  1.45299986E-11,  7.41366698E+03,
                       4.07519606E+01]),
                NASA([1025.84, 5000.00],
                     [ 2.09282520E+01,  4.83786266E-02, -1.86452358E-05,
                       3.42223986E-09, -2.40159228E-13,  8.87786276E+02,
                      -7.64256592E+01])))

species(name=u'S(1341)',
        atoms='H:14 C:6',
        thermo=(NASA([100.00, 1237.11],
                     [ 9.36204265E-01,  5.80630250E-02, -1.05197660E-05,
                      -1.36320323E-08,  5.73438090E-12, -2.34249411E+04,
                       2.40002576E+01]),
                NASA([1237.11, 5000.00],
                     [ 1.03159905E+01,  4.66440696E-02, -1.96015321E-05,
                       3.61730433E-09, -2.48224262E-13, -2.71926741E+04,
                      -2.90957696E+01])))

species(name=u'S(1342)',
        atoms='H:18 C:8',
        thermo=(NASA([100.00, 1206.86],
                     [-6.89609402E-01,  8.98708288E-02, -4.11358366E-05,
                       1.16625302E-09,  3.08116522E-12, -2.88987652E+04,
                       3.51508275E+01]),
                NASA([1206.86, 5000.00],
                     [ 1.56711370E+01,  5.50966005E-02, -2.20915345E-05,
                       4.00127562E-09, -2.72607063E-13, -3.42643584E+04,
                      -5.27253224E+01])))

species(name=u'S(1345)',
        atoms='H:16 C:8',
        thermo=(NASA([100.00, 1116.01],
                     [-3.08523527E-01,  8.13491273E-02, -2.96096041E-05,
                      -9.98039775E-09,  7.13492483E-12, -1.35435008E+04,
                       3.42489145E+01]),
                NASA([1116.01, 5000.00],
                     [ 1.50739934E+01,  5.02709107E-02, -2.01707190E-05,
                       3.69538757E-09, -2.55226885E-13, -1.84749641E+04,
                      -4.83628559E+01])))

species(name=u'S(1580)',
        atoms='H:12 C:6',
        thermo=(NASA([100.00, 1829.14],
                     [ 7.23497206E-01,  6.40962986E-02, -3.88937857E-05,
                       1.18285810E-08, -1.46479639E-12, -9.55473307E+03,
                       2.34752956E+01]),
                NASA([1829.14, 5000.00],
                     [ 1.55815550E+01,  3.16049972E-02, -1.22495396E-05,
                       2.11773097E-09, -1.37578189E-13, -1.49903266E+04,
                      -5.71784952E+01])))

species(name=u'C5H8(1788)',
        atoms='H:8 C:5',
        thermo=(NASA([100.00, 1049.25],
                     [ 2.01062155E+00,  3.15407187E-02,  2.07789480E-05,
                      -4.44088985E-08,  1.72419112E-11,  7.01383967E+03,
                       1.65768346E+01]),
                NASA([1049.25, 5000.00],
                     [ 1.14809937E+01,  2.45641673E-02, -1.08867259E-05,
                       2.16707025E-09, -1.59145781E-13,  3.42314914E+03,
                      -3.72078866E+01])))

species(name=u'S(2211)',
        atoms='H:10 C:6',
        thermo=(NASA([100.00, 1122.78],
                     [ 1.46684845E+00,  4.71514066E-02, -9.42741723E-06,
                      -1.33221128E-08,  6.31961252E-12,  6.52798365E+03,
                       2.25047068E+01]),
                NASA([1122.78, 5000.00],
                     [ 9.99431999E+00,  3.35595364E-02, -1.36975193E-05,
                       2.53063892E-09, -1.75468327E-13,  3.55492255E+03,
                      -2.43352419E+01])))

species(name=u'S(2496)',
        atoms='H:12 C:8',
        thermo=(NASA([100.00, 1018.55],
                     [ 6.01063084E-02,  7.29655393E-02, -2.58705028E-05,
                      -1.72899943E-08,  1.14983085E-11,  1.25335342E+04,
                       3.02021008E+01]),
                NASA([1018.55, 5000.00],
                     [ 1.68364676E+01,  3.58886254E-02, -1.36909925E-05,
                       2.50533844E-09, -1.75806316E-13,  7.62178202E+03,
                      -5.83776552E+01])))

species(name=u'S(4005)',
        atoms='H:12 C:6',
        thermo=(NASA([100.00, 1917.57],
                     [ 2.29989638E+00,  4.93347109E-02, -1.39908418E-05,
                      -2.79410381E-09,  1.20747058E-12, -1.03230301E+04,
                       1.84311611E+01]),
                NASA([1917.57, 5000.00],
                     [ 1.85703860E+01,  3.37500613E-02, -1.61580314E-05,
                       2.95111967E-09, -1.92346931E-13, -1.99376584E+04,
                      -7.94569206E+01])))

species(name=u'S(4300)',
        atoms='H:14 C:8',
        thermo=(NASA([100.00, 1061.60],
                     [-2.92612951E-01,  8.13598275E-02, -3.75111418E-05,
                      -5.26741361E-09,  6.79994848E-12, -2.97590642E+03,
                       3.09689353E+01]),
                NASA([1061.60, 5000.00],
                     [ 1.65258066E+01,  4.22160356E-02, -1.64331588E-05,
                       2.99218348E-09, -2.07335076E-13, -7.91194306E+03,
                      -5.76052440E+01])))

species(name=u'S(4356)',
        atoms='H:14 C:8',
        thermo=(NASA([100.00, 1061.60],
                     [-2.92612951E-01,  8.13598275E-02, -3.75111418E-05,
                      -5.26741361E-09,  6.79994848E-12, -2.97590642E+03,
                       3.09689353E+01]),
                NASA([1061.60, 5000.00],
                     [ 1.65258066E+01,  4.22160356E-02, -1.64331588E-05,
                       2.99218348E-09, -2.07335076E-13, -7.91194306E+03,
                      -5.76052440E+01])))

species(name=u'X(1)',
        atoms='X:1',
        thermo=(NASA([100.00, 1554.80],
                     [ 7.10139498E-03, -4.25619522E-05,  8.98533016E-08,
                      -7.80193649E-11,  2.32465471E-14, -8.76101712E-01,
                      -3.11211229E-02]),
                NASA([1554.80, 5000.00],
                     [ 1.60299900E-01, -2.52235409E-04,  1.14181275E-07,
                      -1.21471653E-11,  3.85790025E-16, -7.08100885E+01,
                      -9.09527530E-01])))

species(name=u'HX(5)',
        atoms='H:1 X:1',
        thermo=(NASA([100.00, 952.91],
                     [-3.80965452E-01,  5.47228709E-03,  2.60912778E-06,
                      -9.64961980E-09,  4.63946753E-12, -9.42254356E+03,
                       1.01725550E+00]),
                NASA([952.91, 5000.00],
                     [ 2.80339655E+00, -5.41047017E-04,  4.99507978E-07,
                      -7.54963647E-11,  3.06772366E-15, -1.03632930E+04,
                      -1.59436787E+01])))

species(name=u'C2H3X(27)',
        atoms='H:3 C:2 X:1',
        thermo=(NASA([100.00, 928.62],
                     [ 3.83091018E+00, -8.76381562E-03,  6.97956896E-05,
                      -8.67969174E-08,  3.33218121E-11,  4.50142039E+03,
                      -1.81151753E+01]),
                NASA([928.62, 5000.00],
                     [ 8.78054562E+00,  1.92497720E-03,  8.25825014E-07,
                      -1.63749818E-10,  5.71728318E-15,  2.20201726E+03,
                      -4.90588618E+01])))

species(name=u'allylX(28)',
        atoms='H:5 C:3 X:1',
        thermo=(NASA([100.00, 937.34],
                     [ 3.44148119E+00, -3.47700003E-03,  8.25933681E-05,
                      -1.05556823E-07,  4.04445066E-11,  9.59582257E+02,
                      -6.88846669E+00]),
                NASA([937.34, 5000.00],
                     [ 9.98148902E+00,  8.92268754E-03, -1.75442587E-06,
                       3.12285771E-10, -2.84156572E-14, -2.03721539E+03,
                      -4.74626902E+01])))

species(name=u'CH3X(29)',
        atoms='H:3 C:1 X:1',
        thermo=(NASA([100.00, 848.30],
                     [-1.21090496E+00,  2.92390681E-02, -4.49011079E-05,
                       3.86009808E-08, -1.30361041E-11, -3.21909625E+03,
                       6.80939750E+00]),
                NASA([848.30, 5000.00],
                     [ 1.62290877E+00,  1.12987268E-02, -5.08316908E-06,
                       9.46833581E-10, -6.42885536E-14, -3.53516115E+03,
                      -5.42501059E+00])))

species(name=u'C2H5X(30)',
        atoms='H:5 C:2 X:1',
        thermo=(NASA([100.00, 803.81],
                     [-1.64625424E+00,  3.89626488E-02, -4.31128887E-05,
                       2.97076939E-08, -8.80222915E-12, -7.20277127E+03,
                       9.27323637E+00]),
                NASA([803.81, 5000.00],
                     [ 1.97598112E+00,  2.09382766E-02, -9.47916922E-06,
                       1.81392948E-09, -1.27206354E-13, -7.78512005E+03,
                      -7.41107956E+00])))

species(name=u'C4H7X(31)',
        atoms='H:7 C:4 X:1',
        thermo=(NASA([100.00, 971.02],
                     [ 2.64365035E+00,  1.79007589E-02,  4.24443189E-05,
                      -6.44028479E-08,  2.49593993E-11, -2.99712717E+03,
                      -6.69991651E+00]),
                NASA([971.02, 5000.00],
                     [ 9.25871667E+00,  2.04064152E-02, -7.39143670E-06,
                       1.37021231E-09, -9.94133357E-14, -5.68461130E+03,
                      -4.56426102E+01])))

species(name=u'C4H7X(32)',
        atoms='H:7 C:4 X:1',
        thermo=(NASA([100.00, 986.67],
                     [ 2.45798205E+00,  2.47217336E-02,  2.01285964E-05,