units(length='cm', time='s', quantity='mol', act_energy='kcal/mol')

ideal_gas(name='gas',
          elements="H D T C Ci O Oi N Ne Ar He Si S Cl X",
          species="""n-heptane   Ar          He          Ne
                     N2          C2H4(2)     C4H8-1(3)   C4H8-2(4)
                     H(6)        C6H12-1(7)  C6H12-2(8)  C6H12-3(9)
                     C6H12(10)   C6H12(11)   C4H6(54)    C2H5(67)
                     C4H9(85)    C4H10(264)""",
          reactions='gas-*',
          transport='Mix',
          initial_state=state(temperature=300.0, pressure=OneAtm))

ideal_interface(name='surface1',
                elements="H D T C Ci O Oi N Ne Ar He Si S Cl X",
                species="""X(1)        C2H5X(5)    HX(80)      C2H3X(137)
                          C4H9X(153)""",
                site_density=2.72e-09,
                phases="gas",
          reactions='surface1-*',
                initial_state=state(temperature=300.0, pressure=OneAtm))

#-------------------------------------------------------------------------------
# Element data
#-------------------------------------------------------------------------------

element(symbol=u'X', atomic_mass=195.083)
element(symbol=u'Ci', atomic_mass=13.003)
element(symbol=u'D', atomic_mass=2.014)
element(symbol=u'Oi', atomic_mass=18.0)
element(symbol=u'T', atomic_mass=3.016)
#-------------------------------------------------------------------------------
# Species data
#-------------------------------------------------------------------------------

species(name=u'n-heptane',
        atoms='H:16 C:7',
        thermo=(NASA([100.00, 1262.75],
                     [-2.93512125E-03,  7.69375610E-02, -3.48031525E-05,
                       1.86160506E-09,  2.01550529E-12, -2.57829334E+04,
                       3.00312819E+01]),
                NASA([1262.75, 5000.00],
                     [ 1.38379971E+01,  4.85941816E-02, -1.95472819E-05,
                       3.52833289E-09, -2.39061569E-13, -3.05142526E+04,
                      -4.48654615E+01])),
        transport=gas_transport(geom='nonlinear',
                                diam=6.366,
                                well_depth=402.997))

species(name=u'Ar',
        atoms='Ar:1',
        thermo=(NASA([200.00, 1000.00],
                     [ 2.50000000E+00,  0.00000000E+00,  0.00000000E+00,
                       0.00000000E+00,  0.00000000E+00, -7.45375000E+02,
                       4.37967000E+00]),
                NASA([1000.00, 6000.00],
                     [ 2.50000000E+00,  0.00000000E+00,  0.00000000E+00,
                       0.00000000E+00,  0.00000000E+00, -7.45375000E+02,
                       4.37967000E+00])),
        transport=gas_transport(geom='atom',
                                diam=3.33,
                                well_depth=136.5))

species(name=u'He',
        atoms='He:1',
        thermo=(NASA([200.00, 1000.00],
                     [ 2.50000000E+00,  0.00000000E+00,  0.00000000E+00,
                       0.00000000E+00,  0.00000000E+00, -7.45375000E+02,
                       9.28724000E-01]),
                NASA([1000.00, 6000.00],
                     [ 2.50000000E+00,  0.00000000E+00,  0.00000000E+00,
                       0.00000000E+00,  0.00000000E+00, -7.45375000E+02,
                       9.28724000E-01])),
        transport=gas_transport(geom='atom',
                                diam=2.576,
                                well_depth=10.2))

species(name=u'Ne',
        atoms='Ne:1',
        thermo=(NASA([200.00, 1000.00],
                     [ 2.50000000E+00,  0.00000000E+00,  0.00000000E+00,
                       0.00000000E+00,  0.00000000E+00, -7.45375000E+02,
                       3.35532000E+00]),
                NASA([1000.00, 6000.00],
                     [ 2.50000000E+00,  0.00000000E+00,  0.00000000E+00,
                       0.00000000E+00,  0.00000000E+00, -7.45375000E+02,
                       3.35532000E+00])),
        transport=gas_transport(geom='atom',
                                diam=3.758,
                                well_depth=148.6))

species(name=u'N2',
        atoms='N:2',
        thermo=(NASA([200.00, 1000.00],
                     [ 3.53101000E+00, -1.23661000E-04, -5.02999000E-07,
                       2.43531000E-09, -1.40881000E-12, -1.04698000E+03,
                       2.96747000E+00]),
                NASA([1000.00, 6000.00],
                     [ 2.95258000E+00,  1.39690000E-03, -4.92632000E-07,
                       7.86010000E-11, -4.60755000E-15, -9.23949000E+02,
                       5.87189000E+00])),
        transport=gas_transport(geom='linear',
                                diam=3.621,
                                well_depth=97.53,
                                polar=1.76,
                                rot_relax=4.0))

species(name=u'C2H4(2)',
        atoms='H:4 C:2',
        thermo=(NASA([100.00, 979.37],
                     [ 3.97469045E+00, -4.75813325E-03,  4.16772624E-05,
                      -4.51377676E-08,  1.54218287E-11,  4.91540855E+03,
                       3.62439976E+00]),
                NASA([979.37, 5000.00],
                     [ 3.55670229E+00,  1.10625819E-02, -4.17009559E-06,
                       7.85564219E-10, -5.70042086E-14,  4.32042473E+03,
                       2.17665377E+00])),
        transport=gas_transport(geom='nonlinear',
                                diam=3.971,
                                well_depth=280.8,
                                rot_relax=1.5))

species(name=u'C4H8-1(3)',
        atoms='H:8 C:4',
        thermo=(NASA([100.00, 1007.28],
                     [ 2.58772978E+00,  2.32777883E-02,  1.93412653E-05,
                      -3.55496729E-08,  1.36906178E-11, -1.91872929E+03,
                       1.45750592E+01]),
                NASA([1007.28, 5000.00],
                     [ 7.20516863E+00,  2.36361619E-02, -9.03150325E-06,
                       1.65392736E-09, -1.16019318E-13, -3.79733809E+03,
                      -1.24426086E+01])),
        transport=gas_transport(geom='nonlinear',
                                diam=5.176,
                                well_depth=357.002,
                                rot_relax=1.0))

species(name=u'C4H8-2(4)',
        atoms='H:8 C:4',
        thermo=(NASA([100.00, 1157.78],
                     [ 2.51999305E+00,  2.76811707E-02,  9.44135366E-07,
                      -1.25013222E-08,  4.67160311E-12, -3.34374810E+03,
                       1.30195268E+01]),
                NASA([1157.78, 5000.00],
                     [ 6.04218222E+00,  2.60073554E-02, -1.04844041E-05,
                       1.90882450E-09, -1.30601743E-13, -4.86273126E+03,
                      -7.52672501E+00])),
        transport=gas_transport(geom='nonlinear',
                                diam=5.289,
                                well_depth=359.053))

species(name=u'H(6)',
        atoms='H:1',
        thermo=(NASA([100.00, 4383.16],
                     [ 2.50000000E+00, -2.38914167E-13,  3.12709494E-16,
                      -1.33367320E-19,  1.74989654E-23,  2.54742178E+04,
                      -4.44972897E-01]),
                NASA([4383.16, 5000.00],
                     [ 2.50003447E+00, -3.04996987E-08,  1.01101187E-11,
                      -1.48796738E-15,  8.20356170E-20,  2.54741866E+04,
                      -4.45191184E-01])),
        transport=gas_transport(geom='atom',
                                diam=2.05,
                                well_depth=145.0))

species(name=u'C6H12-1(7)',
        atoms='H:12 C:6',
        thermo=(NASA([100.00, 2065.45],
                     [ 1.68598221E+00,  5.58664678E-02, -2.53058634E-05,
                       3.98022739E-09, -6.95050220E-14, -7.81739441E+03,
                       2.09920051E+01]),
                NASA([2065.45, 5000.00],
                     [ 2.13492441E+01,  2.79128048E-02, -1.23592816E-05,
                       2.17520184E-09, -1.38342160E-13, -1.81001612E+04,
                      -9.33636231E+01])),
        transport=gas_transport(geom='nonlinear',
                                diam=5.851,
                                well_depth=385.248))

species(name=u'C6H12-2(8)',
        atoms='H:12 C:6',
        thermo=(NASA([100.00, 1829.16],
                     [ 7.23497914E-01,  6.40962929E-02, -3.88937743E-05,
                       1.18285731E-08, -1.46479465E-12, -9.55473312E+03,
                       2.34752929E+01]),
                NASA([1829.16, 5000.00],
                     [ 1.55815815E+01,  3.16049577E-02, -1.22495189E-05,
                       2.11772642E-09, -1.37577832E-13, -1.49903398E+04,
                      -5.71786483E+01])),
        transport=gas_transport(geom='nonlinear',
                                diam=5.925,
                                well_depth=395.365))

species(name=u'C6H12-3(9)',
        atoms='H:12 C:6',
        thermo=(NASA([100.00, 1839.11],
                     [ 7.39765456E-01,  6.35836464E-02, -3.85035904E-05,
                       1.16726872E-08, -1.43916121E-12, -9.53996492E+03,
                       2.35193834E+01]),
                NASA([1839.11, 5000.00],
                     [ 1.56639500E+01,  3.11245826E-02, -1.20300125E-05,
                       2.07632194E-09, -1.34696993E-13, -1.50294956E+04,
                      -5.75744504E+01])),
        transport=gas_transport(geom='nonlinear',
                                diam=5.925,
                                well_depth=395.365))

species(name=u'C6H12(10)',
        atoms='H:12 C:6',
        thermo=(NASA([100.00, 1018.92],
                     [ 1.21824397E+00,  4.88307070E-02,  8.49214055E-06,
                      -3.91884007E-08,  1.67100558E-11, -8.55522000E+03,
                       2.43075994E+01]),
                NASA([1018.92, 5000.00],
                     [ 1.16699416E+01,  3.59248568E-02, -1.39119411E-05,
                       2.55989045E-09, -1.79819725E-13, -1.21450638E+04,
                      -3.34759078E+01])),
        transport=gas_transport(geom='nonlinear',
                                diam=5.884,
                                well_depth=388.064))

species(name=u'C6H12(11)',
        atoms='H:12 C:6',
        thermo=(NASA([100.00, 1917.59],
                     [ 2.29988559E+00,  4.93348058E-02, -1.39910600E-05,
                      -2.79392986E-09,  1.20742677E-12, -1.03230295E+04,
                       1.84312025E+01]),
                NASA([1917.59, 5000.00],
                     [ 1.85713833E+01,  3.37487534E-02, -1.61574143E-05,
                       2.95099503E-09, -1.92337797E-13, -1.99382403E+04,
                      -7.94628222E+01])),
        transport=gas_transport(geom='nonlinear',
                                diam=5.95,
                                well_depth=398.057))

species(name=u'C4H6(54)',
        atoms='H:6 C:4',
        thermo=(NASA([100.00, 946.05],
                     [ 2.80594317E+00,  1.02590609E-02,  6.17237648E-05,
                      -9.01611778E-08,  3.59103084E-11,  1.16584993E+04,
                       1.20623208E+01]),
                NASA([946.05, 5000.00],
                     [ 1.24695345E+01,  1.00551088E-02, -2.41190446E-06,
                       4.57038145E-10, -3.93127871E-14,  8.01071120E+03,
                      -4.36383840E+01])),
        transport=gas_transport(geom='nonlinear',
                                diam=5.18,
                                well_depth=357.002,
                                rot_relax=1.0))

species(name=u'C2H5(67)',
        atoms='H:5 C:2',
        thermo=(NASA([100.00, 1006.87],
                     [ 3.68745380E+00,  3.06903510E-03,  2.55868228E-05,
                      -2.94070210E-08,  9.94049079E-12,  1.31153653E+04,
                       6.96689006E+00]),
                NASA([1006.87, 5000.00],
                     [ 3.53785893E+00,  1.37310809E-02, -5.29559886E-06,
                       9.71471661E-10, -6.80280220E-14,  1.26351584E+04,
                       5.15538530E+00])),
        transport=gas_transport(geom='nonlinear',
                                diam=4.302,
                                well_depth=252.3,
                                rot_relax=1.5))

species(name=u'C4H9(85)',
        atoms='H:9 C:4',
        thermo=(NASA([100.00, 1050.58],
                     [ 2.25387539E+00,  3.16764165E-02,  2.89968391E-06,
                      -1.98045544E-08,  8.20489613E-12,  7.65264319E+03,
                       1.72724785E+01]),
                NASA([1050.58, 5000.00],
                     [ 7.59594094E+00,  2.60841596E-02, -1.01718224E-05,
                       1.85188216E-09, -1.28168757E-13,  5.71635739E+03,
                      -1.26367600E+01])),
        transport=gas_transport(geom='nonlinear',
                                diam=5.176,
                                well_depth=357.002,
                                rot_relax=1.0))

species(name=u'C4H10(264)',
        atoms='H:10 C:4',
        thermo=(NASA([100.00, 1147.60],
                     [ 2.16918887E+00,  3.43904101E-02, -1.61547012E-06,
                      -1.30728593E-08,  5.17358217E-12, -1.72505138E+04,
                       1.46546529E+01]),
                NASA([1147.60, 5000.00],
                     [ 6.78899599E+00,  3.03598725E-02, -1.21262363E-05,
                       2.19945742E-09, -1.50289895E-13, -1.91057812E+04,
                      -1.17327118E+01])),
        transport=gas_transport(geom='nonlinear',
                                diam=5.415,
                                well_depth=348.415))

species(name=u'X(1)',
        atoms='X:1',
        thermo=(NASA([100.00, 1554.81],
                     [ 7.10134880E-03, -4.25615041E-05,  8.98521156E-08,
                      -7.80182565E-11,  2.32462166E-14, -8.76099414E-01,
                      -3.11209498E-02]),
                NASA([1554.81, 5000.00],
                     [ 1.60301287E-01, -2.52237396E-04,  1.14182282E-07,
                      -1.21473809E-11,  3.85806589E-16, -7.08108147E+01,
                      -9.09535600E-01])))

species(name=u'C2H5X(5)',
        atoms='H:5 C:2 X:1',
        thermo=(NASA([100.00, 803.89],
                     [-1.64624290E+00,  3.89625197E-02, -4.31124593E-05,
                       2.97071589E-08, -8.80200440E-12,  3.67645286E+03,
                       9.27319544E+00]),
                NASA([803.89, 5000.00],
                     [ 1.97599860E+00,  2.09382411E-02, -9.47914613E-06,
                       1.81392354E-09, -1.27205831E-13,  3.09409909E+03,
                      -7.41117371E+00])))

species(name=u'HX(80)',
        atoms='H:1 X:1',
        thermo=(NASA([100.00, 952.91],
                     [-3.80957846E-01,  5.47219393E-03,  2.60946928E-06,
                      -9.65008412E-09,  4.63967474E-12,  7.98421551E+03,
                       1.01722845E+00]),
                NASA([952.91, 5000.00],
                     [ 2.80337105E+00, -5.41002993E-04,  4.99482316E-07,
                      -7.54902555E-11,  3.06721398E-15,  7.04347692E+03,
                      -1.59435356E+01])))

species(name=u'C2H3X(137)',
        atoms='H:3 C:2 X:1',
        thermo=(NASA([100.00, 928.60],
                     [ 3.83104022E+00, -8.76542826E-03,  6.98017027E-05,
                      -8.68052566E-08,  3.33256145E-11,  1.53806395E+04,
                      -1.81156365E+01]),
                NASA([928.60, 5000.00],
                     [ 8.78015372E+00,  1.92565992E-03,  8.25424482E-07,
                      -1.63654020E-10,  5.70926320E-15,  1.30814014E+04,
                      -4.90566656E+01])))

species(name=u'C4H9X(153)',
        atoms='H:9 C:4 X:1',
        thermo=(NASA([100.00, 993.09],
                     [ 2.22649398E+00,  2.86530264E-02,  2.37815365E-05,
                      -4.60602647E-08,  1.82913397E-11,  8.21337973E+02,
                      -3.55142154E+00]),
                NASA([993.09, 5000.00],
                     [ 9.09062474E+00,  2.59568966E-02, -9.83403953E-06,
                       1.80637333E-09, -1.27731585E-13, -1.77238111E+03,
                      -4.28140174E+01])))

#-------------------------------------------------------------------------------
# Reaction data
#-------------------------------------------------------------------------------
#  Reaction index: Chemkin #1; RMG #244
#  Template reaction: R_Addition_MultipleBond
#  Flux pairs: H(6), C2H5(67); C2H4(2), C2H5(67);
#  Matched reaction 2541 H + C2H4 <=> C2H5-2 in R_Addition_MultipleBond/training
#  This reaction matched rate rule [Cds-HH_Cds-HH;HJ]
#  family: R_Addition_MultipleBond

# Reaction 1
reaction('C2H4(2) + H(6) <=> C2H5(67)', [4.620000e+08, 1.64, 1.01],
         id='gas-1')
#  Reaction index: Chemkin #2; RMG #324
#  Template reaction: R_Addition_MultipleBond
#  Flux pairs: H(6), C4H9(85); C4H8-1(3), C4H9(85);
#  From training reaction 10 used for Cds-CsH_Cds-HH;HJ
#  Exact match found for rate rule [Cds-CsH_Cds-HH;HJ]
#  Euclidian distance = 0
#  family: R_Addition_MultipleBond

# Reaction 2
reaction('H(6) + C4H8-1(3) <=> C4H9(85)', [3.010000e+08, 1.6, 2.4],
         id='gas-2')
#  Reaction index: Chemkin #3; RMG #967
#  Template reaction: R_Addition_MultipleBond
#  Flux pairs: C2H5(67), C4H9(85); C2H4(2), C4H9(85);
#  Matched reaction 220 C2H4 + C2H5 <=> C4H9-2 in R_Addition_MultipleBond/training
#  This reaction matched rate rule [Cds-HH_Cds-HH;CsJ-CsHH]
#  family: R_Addition_MultipleBond

# Reaction 3
reaction('C2H4(2) + C2H5(67) <=> C4H9(85)', [4.240000e+03, 2.41, 5.06],
         id='gas-3')
#  Reaction index: Chemkin #4; RMG #1042
#  Template reaction: R_Recombination
#  Flux pairs: C2H5(67), C4H10(264); C2H5(67), C4H10(264);
#  Matched reaction 11 C2H5 + C2H5 <=> C4H10 in R_Recombination/training
#  This reaction matched rate rule [C_rad/H2/Cs;C_rad/H2/Cs]
#  family: R_Recombination

# Reaction 4
reaction('C2H5(67) + C2H5(67) <=> C4H10(264)', [8.730000e+14, -0.699, -0.003],
         id='gas-4')
#  Reaction index: Chemkin #5; RMG #1296
#  Template reaction: R_Recombination
#  Flux pairs: C4H9(85), C4H10(264); H(6), C4H10(264);
#  From training reaction 18 used for C_rad/H2/Cs;H_rad
#  Exact match found for rate rule [C_rad/H2/Cs;H_rad]
#  Euclidian distance = 0
#  family: R_Recombination

# Reaction 5
reaction('H(6) + C4H9(85) <=> C4H10(264)', [2.099782e+12, 0.6, -0.8],
         id='gas-5')
#  Reaction index: Chemkin #6; RMG #1369
#  Template reaction: Disproportionation
#  Flux pairs: C2H5(67), C2H4(2); C4H9(85), C4H10(264);
#  From training reaction 6 used for C_rad/H2/Cs;Cmethyl_Csrad
#  Exact match found for rate rule [C_rad/H2/Cs;Cmethyl_Csrad]
#  Euclidian distance = 0
#  Multiplied by reaction path degeneracy 3.0
#  family: Disproportionation

# Reaction 6
reaction('C4H9(85) + C2H5(67) <=> C2H4(2) + C4H10(264)', [6.900000e+13, -0.35, 0.0],
         id='gas-6')
#  Reaction index: Chemkin #7; RMG #1387
#  Template reaction: Disproportionation
#  Flux pairs: C4H9(85), C4H8-1(3); C4H9(85), C4H10(264);
#  From training reaction 21 used for C_rad/H2/Cs;C/H2/Nd_Csrad
#  Exact match found for rate rule [C_rad/H2/Cs;C/H2/Nd_Csrad]
#  Euclidian distance = 0
#  Multiplied by reaction path degeneracy 2.0
#  family: Disproportionation

# Reaction 7
reaction('C4H9(85) + C4H9(85) <=> C4H8-1(3) + C4H10(264)', [2.900000e+12, 0.0, 0.0],
         id='gas-7')
#  Reaction index: Chemkin #1; RMG #72
#  Template reaction: Surface_EleyRideal_Addition_Multiple_Bond
#  Flux pairs: HX(80), C2H5X(5); C2H4(2), C2H5X(5);
#  Estimated using template [*H;R=R] for rate rule [*H;C=C]
#  Euclidian distance = 1.0
#  Multiplied by reaction path degeneracy 2.0
#  family: Surface_EleyRideal_Addition_Multiple_Bond

# surface1 Reaction 1
surface_reaction('C2H4(2) + HX(80) <=> C2H5X(5)', stick(4.000000e-01, 0.0, 2.39),
                 id='surface1-1')
#  Reaction index: Chemkin #2; RMG #180
#  Template reaction: Surface_Adsorption_Single
#  Flux pairs: X(1), HX(80); H(6), HX(80);
#  Exact match found for rate rule [Adsorbate;VacantSite]
#  Euclidian distance = 0
#  family: Surface_Adsorption_Single

# surface1 Reaction 2
surface_reaction('X(1) + H(6) <=> HX(80)', stick(1.000000e-01, 0.0, 0.0),
                 id='surface1-2')
#  Reaction index: Chemkin #3; RMG #168
#  Template reaction: Surface_Adsorption_Dissociative
#  Flux pairs: C2H4(2), C2H3X(137); C2H4(2), HX(80);
#  Estimated using template [R-H;VacantSite1;VacantSite2] for rate rule [C-H;VacantSite1;VacantSite2]
#  Euclidian distance = 1.0
#  Multiplied by reaction path degeneracy 4.0
#  family: Surface_Adsorption_Dissociative

# surface1 Reaction 3
surface_reaction('C2H4(2) + X(1) + X(1) <=> C2H3X(137) + HX(80)', stick(1.660000e-02, 0.0, 36.84),
                 options='duplicate',
                 id='surface1-3')
#  Reaction index: Chemkin #4; RMG #170
#  Template reaction: Surface_Adsorption_Dissociative
#  Flux pairs: C4H8-1(3), C2H5X(5); C4H8-1(3), C2H3X(137);
#  Exact match found for rate rule [C-C;VacantSite1;VacantSite2]
#  Euclidian distance = 0
#  family: Surface_Adsorption_Dissociative

# surface1 Reaction 4
surface_reaction('X(1) + X(1) + C4H8-1(3) <=> C2H5X(5) + C2H3X(137)', stick(6.595000e-04, 0.0, 42.11),
                 id='surface1-4')
#  Reaction index: Chemkin #5; RMG #865
#  Template reaction: Surface_Adsorption_Dissociative
#  Flux pairs: C2H4(2), C2H3X(137); C2H4(2), HX(80);
#  Estimated using template [R-H;VacantSite1;VacantSite2] for rate rule [C-H;VacantSite1;VacantSite2]
#  Euclidian distance = 1.0
#  Multiplied by reaction path degeneracy 2.0
#  family: Surface_Adsorption_Dissociative

# surface1 Reaction 5
surface_reaction('C2H4(2) + X(1) + X(1) <=> C2H3X(137) + HX(80)', stick(8.300000e-03, 0.0, 36.84),
                 options='duplicate',
                 id='surface1-5')
#  Reaction index: Chemkin #6; RMG #866
#  Template reaction: Surface_Adsorption_Dissociative
#  Flux pairs: C2H4(2), HX(80); C2H4(2), C2H3X(137);
#  Exact match found for rate rule [Adsorbate;VacantSite1;VacantSite2]
#  Euclidian distance = 0
#  Multiplied by reaction path degeneracy 2.0
#  family: Surface_Adsorption_Dissociative

# surface1 Reaction 6
surface_reaction('C2H4(2) + X(1) + X(1) <=> C2H3X(137) + HX(80)', stick(1.319000e-03, 0.0, 36.84),
                 options='duplicate',
                 id='surface1-6')
#  Reaction index: Chemkin #7; RMG #73
#  Template reaction: Surface_Adsorption_Single
#  Flux pairs: C2H5(67), C2H5X(5); X(1), C2H5X(5);
#  Exact match found for rate rule [Adsorbate;VacantSite]
#  Euclidian distance = 0
#  family: Surface_Adsorption_Single

# surface1 Reaction 7
surface_reaction('X(1) + C2H5(67) <=> C2H5X(5)', stick(1.000000e-01, 0.0, 0.0),
                 id='surface1-7')
#  Reaction index: Chemkin #8; RMG #961
#  Template reaction: Surface_Adsorption_Dissociative
#  Flux pairs: C4H6(54), C2H3X(137); C4H6(54), C2H3X(137);
#  Exact match found for rate rule [C-C;VacantSite1;VacantSite2]
#  Euclidian distance = 0
#  family: Surface_Adsorption_Dissociative

# surface1 Reaction 8
surface_reaction('X(1) + X(1) + C4H6(54) <=> C2H3X(137) + C2H3X(137)', stick(6.595000e-04, 0.0, 39.452),
                 id='surface1-8')
#  Reaction index: Chemkin #9; RMG #186
#  Template reaction: Surface_Adsorption_Dissociative
#  Flux pairs: C6H12-1(7), C4H9X(153); C6H12-1(7), C2H3X(137);
#  Exact match found for rate rule [C-C;VacantSite1;VacantSite2]
#  Euclidian distance = 0
#  family: Surface_Adsorption_Dissociative

# surface1 Reaction 9
surface_reaction('X(1) + X(1) + C6H12-1(7) <=> C2H3X(137) + C4H9X(153)', stick(6.595000e-04, 0.0, 48.742),
                 id='surface1-9')
#  Reaction index: Chemkin #10; RMG #243
#  Template reaction: Surface_EleyRideal_Addition_Multiple_Bond
#  Flux pairs: C2H4(2), C4H9X(153); C2H5X(5), C4H9X(153);
#  Estimated using template [*C;R=R] for rate rule [*C2;C=C]
#  Euclidian distance = 1.41421356237
#  Multiplied by reaction path degeneracy 2.0
#  family: Surface_EleyRideal_Addition_Multiple_Bond

# surface1 Reaction 10
surface_reaction('C2H4(2) + C2H5X(5) <=> C4H9X(153)', stick(4.000000e-01, 0.0, 16.41),
                 id='surface1-10')
#  Reaction index: Chemkin #11; RMG #932
#  Template reaction: Surface_EleyRideal_Addition_Multiple_Bond
#  Flux pairs: C4H8-1(3), C4H9X(153); HX(80), C4H9X(153);
#  Exact match found for rate rule [*H;R=R]
#  Euclidian distance = 0
#  family: Surface_EleyRideal_Addition_Multiple_Bond

# surface1 Reaction 11
surface_reaction('C4H8-1(3) + HX(80) <=> C4H9X(153)', stick(2.000000e-01, 0.0, 2.39),
                 id='surface1-11')
#  Reaction index: Chemkin #12; RMG #1230
#  Template reaction: Surface_Adsorption_Single
#  Flux pairs: C4H9(85), C4H9X(153); X(1), C4H9X(153);
#  Exact match found for rate rule [Adsorbate;VacantSite]
#  Euclidian distance = 0
#  family: Surface_Adsorption_Single

# surface1 Reaction 12
surface_reaction('X(1) + C4H9(85) <=> C4H9X(153)', stick(1.000000e-01, 0.0, 0.0),
                 id='surface1-12')
#  Reaction index: Chemkin #13; RMG #514
#  Template reaction: Surface_Adsorption_Dissociative
#  Flux pairs: C4H10(264), C2H5X(5); C4H10(264), C2H5X(5);
#  Exact match found for rate rule [C-C;VacantSite1;VacantSite2]
#  Euclidian distance = 0
#  family: Surface_Adsorption_Dissociative
#  Ea raised from 202.0 to 204.2 kJ/mol to match endothermicity of reaction.

# surface1 Reaction 13
surface_reaction('X(1) + X(1) + C4H10(264) <=> C2H5X(5) + C2H5X(5)', stick(6.595000e-04, 0.0, 48.809),
                 id='surface1-13')
#  Reaction index: Chemkin #14; RMG #1247
#  Template reaction: Surface_Adsorption_Dissociative
#  Flux pairs: C4H10(264), C4H9X(153); C4H10(264), HX(80);
#  Exact match found for rate rule [Adsorbate;VacantSite1;VacantSite2]
#  Euclidian distance = 0
#  Multiplied by reaction path degeneracy 3.0
#  family: Surface_Adsorption_Dissociative

# surface1 Reaction 14
surface_reaction('X(1) + X(1) + C4H10(264) <=> C4H9X(153) + HX(80)', stick(1.979000e-03, 0.0, 51.904),
                 options='duplicate',
                 id='surface1-14')
#  Reaction index: Chemkin #15; RMG #1436
#  Template reaction: Surface_Adsorption_Dissociative
#  Flux pairs: C4H10(264), C4H9X(153); C4H10(264), HX(80);
#  Estimated using template [R-H;VacantSite1;VacantSite2] for rate rule [C-H;VacantSite1;VacantSite2]
#  Euclidian distance = 1.0
#  Multiplied by reaction path degeneracy 3.0
#  family: Surface_Adsorption_Dissociative

# surface1 Reaction 15
surface_reaction('X(1) + X(1) + C4H10(264) <=> C4H9X(153) + HX(80)', stick(1.245000e-02, 0.0, 51.904),
                 options='duplicate',
                 id='surface1-15')
#  Reaction index: Chemkin #16; RMG #1438
#  Template reaction: Surface_Adsorption_Dissociative
#  Flux pairs: C4H10(264), HX(80); C4H10(264), C4H9X(153);
#  Exact match found for rate rule [Adsorbate;VacantSite1;VacantSite2]
#  Euclidian distance = 0
#  Multiplied by reaction path degeneracy 3.0
#  family: Surface_Adsorption_Dissociative

# surface1 Reaction 16
surface_reaction('X(1) + X(1) + C4H10(264) <=> C4H9X(153) + HX(80)', stick(1.979000e-03, 0.0, 51.904),
                 options='duplicate',
                 id='surface1-16')
