units(length='cm', time='s', quantity='mol', act_energy='kcal/mol')

ideal_gas(name='gas',
          elements="H D T C Ci O Oi N Ne Ar He Si S Cl X",
          species="""n-heptane   Ar          He          Ne
                     N2          C2H4(2)     C4H8-1(3)   C4H8-2(4)
                     C4H6(7)     C6H8(9)     C4H6a(55)   C8H10(78)
                     C6H8(83)    C6H8(122)   C8H10(125)  C6H10(137)
                     C6H10(140)  C6H10(214)  C8H12(217)  C6H12(222)
                     C8H12(355)  C6H12(549)  C6H12(579)  C6H10(640)
                     C8H12(647)  C6H12(648)  S(937)      S(1401)
                     S(1873)     S(2069)     S(2172)     S(2352)
                     S(2781)     S(3416)     S(3491)     S(3564)
                     S(3836)     S(3837)     S(4475)     S(4603)
                     S(4704)     S(4707)     S(4711)     S(4829)
                     S(4935)     S(6486)     S(6539)     S(6557)
                     S(6564)     S(6761)     S(6819)     S(7529)
                     S(7930)     S(8042)     S(8269)     S(9323)
                     S(10386)    S(10609)    S(11630)    S(13278)
                     S(13327)    S(13409)    S(13558)""",
          reactions='gas-*',
          initial_state=state(temperature=300.0, pressure=OneAtm))

ideal_interface(name='surface1',
                elements="H D T C Ci O Oi N Ne Ar He Si S Cl X",
                species="""X(1)        HX(5)       C2H3X(27)   CH3X(29)
                          C2H5X(30)   C4H7X(31)   C4H7X(32)   C4H7X(33)
                          C4H7X(34)   C4H7X(36)   C4H7X(37)   C4H9X(44)
                          C4H9X(45)   C6H11X(50)  C6H11X(51)  C6H11X(52)
                          C4H5X(56)   C4H5X(57)   C6H9X(65)   C6H9X(66)
                          C6H9X(72)   C8H13X(73)  C8H13X(75)  C8H11X(76)
                          C8H11X(77)  C6H7X(84)   C6H7X(85)   C6H7X(86)
                          C6H9X(97)   C8H11X(99)  C6H9X(118)  SX(123)
                          SX(132)     SX(133)     SX(134)     SX(136)
                          SX(139)     C6H7X(147)  C6H9X(161)  C6H9X(162)
                          SX(164)     SX(210)     SX(215)     SX(269)
                          SX(270)     SX(271)     SX(344)     SX(395)
                          C6H9X(478)  SX(481)     C4H7X(541)  SX(569)
                          SX(573)     C6H9X(601)  SX(635)     C6H9X(682)
                          SX(703)     SX(705)     SX(706)     SX(707)
                          SX(817)     SX(820)     SX(862)     SX(863)
                          SX(871)     SX(872)     SX(935)     C6H9X(968)
                          C6H9X(969)  SX(1007)    SX(1085)    SX(1103)
                          SX(1125)    SX(1130)    SX(1144)    SX(1195)
                          SX(1196)    SX(1207)    SX(1314)    SX(1403)
                          SX(1451)    SX(1497)    SX(1566)    SX(1567)
                          SX(1570)    SX(1581)    SX(1599)    SX(1697)
                          SX(1786)    SX(1787)    SX(1788)    SX(1864)
                          SX(1914)    SX(2065)    SX(2173)    SX(2421)
                          SX(2422)    SX(2440)    SX(2529)    SX(2615)
                          SX(2625)    SX(2782)    SX(2854)    SX(2855)
                          SX(2856)    SX(2858)    SX(2859)    SX(2878)
                          SX(2977)    SX(2978)    SX(2979)    SX(3001)
                          SX(3168)    SX(3284)    SX(3401)    SX(3482)
                          SX(3483)    SX(3484)    SX(3566)    SX(3653)
                          SX(3654)    SX(3840)    SX(3890)    SX(3891)
                          SX(3892)    SX(3893)    SX(3974)    SX(4602)
                          SX(4608)    SX(4705)    SX(4834)    SX(4835)
                          SX(4923)    SX(5000)    SX(5156)    SX(5167)
                          SX(5772)    SX(6063)    SX(6126)    SX(6127)
                          SX(6128)    SX(6284)    SX(6316)    SX(6318)
                          SX(6381)    SX(6384)    SX(6469)    SX(6470)
                          SX(6471)    SX(6481)    SX(6560)    SX(6591)
                          SX(6592)    SX(6593)    SX(6595)    SX(6596)
                          SX(6615)    SX(6647)    SX(6648)    SX(6649)
                          SX(6650)    SX(6680)    SX(6724)    SX(6751)
                          SX(6752)    SX(6763)    SX(6765)    SX(6778)
                          SX(6800)    SX(6811)    SX(6815)    SX(6818)
                          SX(6954)    SX(7531)    SX(7578)    SX(7579)
                          SX(7580)    SX(7581)    SX(7582)    SX(7583)
                          SX(7804)    SX(7917)    SX(9303)    SX(9304)
                          SX(9355)    SX(9379)    SX(9380)    SX(9414)
                          SX(9436)    SX(9437)    SX(9555)    SX(9556)
                          SX(9557)    SX(9792)    SX(9793)    SX(9794)
                          SX(9795)    SX(9963)    SX(10015)   SX(10229)
                          SX(12408)   SX(12414)   SX(12827)   SX(12852)
                          SX(12871)   SX(12873)   SX(13192)   SX(13280)
                          SX(13308)   SX(13309)   SX(13323)   SX(13344)
                          SX(13411)   SX(13454)   SX(13455)   SX(13456)
                          SX(13457)   SX(13458)   SX(13484)   SX(13508)
                          SX(13522)   SX(13560)   SX(13604)   SX(13605)
                          SX(13606)   SX(13607)   SX(13608)   SX(13677)
                          SX(13719)   SX(13908)   SX(13929)   SX(13972)
                          SX(13973)   SX(13974)   SX(14107)   SX(14129)
                          SX(14167)   SX(14714)   SX(14785)   SX(14828)
                          SX(14961)   SX(15027)   SX(15119)   SX(15164)
                          SX(15165)   SX(15166)   SX(15167)   SX(15366)
                          SX(15423)   SX(15425)   SX(15529)""",
                site_density=2.72e-09,
                phases="gas",
          reactions='surface1-*',
                initial_state=state(temperature=300.0, pressure=OneAtm))

#-------------------------------------------------------------------------------
# Element data
#-------------------------------------------------------------------------------

element(symbol=u'X', atomic_mass=195.083)
element(symbol=u'Ci', atomic_mass=13.003)
element(symbol=u'D', atomic_mass=2.014)
element(symbol=u'Oi', atomic_mass=18.0)
element(symbol=u'T', atomic_mass=3.016)
#-------------------------------------------------------------------------------
# Species data
#-------------------------------------------------------------------------------

species(name=u'n-heptane',
        atoms='H:16 C:7',
        thermo=(NASA([100.00, 1262.73],
                     [-2.91681405E-03,  7.69373649E-02, -3.48025563E-05,
                       1.86095180E-09,  2.01573617E-12, -2.57829342E+04,
                       3.00312148E+01]),
                NASA([1262.73, 5000.00],
                     [ 1.38377915E+01,  4.85945016E-02, -1.95474548E-05,
                       3.52837178E-09, -2.39064676E-13, -3.05141556E+04,
                      -4.48642836E+01])))

species(name=u'Ar',
        atoms='Ar:1',
        thermo=(NASA([200.00, 1000.00],
                     [ 2.50000000E+00,  0.00000000E+00,  0.00000000E+00,
                       0.00000000E+00,  0.00000000E+00, -7.45375000E+02,
                       4.37967000E+00]),
                NASA([1000.00, 6000.00],
                     [ 2.50000000E+00,  0.00000000E+00,  0.00000000E+00,
                       0.00000000E+00,  0.00000000E+00, -7.45375000E+02,
                       4.37967000E+00])))

species(name=u'He',
        atoms='He:1',
        thermo=(NASA([200.00, 1000.00],
                     [ 2.50000000E+00,  0.00000000E+00,  0.00000000E+00,
                       0.00000000E+00,  0.00000000E+00, -7.45375000E+02,
                       9.28724000E-01]),
                NASA([1000.00, 6000.00],
                     [ 2.50000000E+00,  0.00000000E+00,  0.00000000E+00,
                       0.00000000E+00,  0.00000000E+00, -7.45375000E+02,
                       9.28724000E-01])))

species(name=u'Ne',
        atoms='Ne:1',
        thermo=(NASA([200.00, 1000.00],
                     [ 2.50000000E+00,  0.00000000E+00,  0.00000000E+00,
                       0.00000000E+00,  0.00000000E+00, -7.45375000E+02,
                       3.35532000E+00]),
                NASA([1000.00, 6000.00],
                     [ 2.50000000E+00,  0.00000000E+00,  0.00000000E+00,
                       0.00000000E+00,  0.00000000E+00, -7.45375000E+02,
                       3.35532000E+00])))

species(name=u'N2',
        atoms='N:2',
        thermo=(NASA([200.00, 1000.00],
                     [ 3.53101000E+00, -1.23661000E-04, -5.02999000E-07,
                       2.43531000E-09, -1.40881000E-12, -1.04698000E+03,
                       2.96747000E+00]),
                NASA([1000.00, 6000.00],
                     [ 2.95258000E+00,  1.39690000E-03, -4.92632000E-07,
                       7.86010000E-11, -4.60755000E-15, -9.23949000E+02,
                       5.87189000E+00])))

species(name=u'C2H4(2)',
        atoms='H:4 C:2',
        thermo=(NASA([100.00, 979.36],
                     [ 3.97471606E+00, -4.75844285E-03,  4.16783770E-05,
                      -4.51392516E-08,  1.54224761E-11,  4.91540746E+03,
                       3.62430844E+00]),
                NASA([979.36, 5000.00],
                     [ 3.55660610E+00,  1.10627464E-02, -4.17019079E-06,
                       7.85586770E-10, -5.70060829E-14,  4.32046489E+03,
                       2.17719479E+00])))

species(name=u'C4H8-1(3)',
        atoms='H:8 C:4',
        thermo=(NASA([100.00, 1007.28],
                     [ 2.58772906E+00,  2.32777969E-02,  1.93412349E-05,
                      -3.55496333E-08,  1.36906009E-11, -1.91872926E+03,
                       1.45750618E+01]),
                NASA([1007.28, 5000.00],
                     [ 7.20517168E+00,  2.36361568E-02, -9.03150028E-06,
                       1.65392666E-09, -1.16019260E-13, -3.79733937E+03,
                      -1.24426257E+01])))

species(name=u'C4H8-2(4)',
        atoms='H:8 C:4',
        thermo=(NASA([100.00, 1157.79],
                     [ 2.51998327E+00,  2.76812799E-02,  9.43783469E-07,
                      -1.25009101E-08,  4.67144666E-12, -3.34374767E+03,
                       1.30195623E+01]),
                NASA([1157.79, 5000.00],
                     [ 6.04225708E+00,  2.60072350E-02, -1.04843374E-05,
                       1.90880922E-09, -1.30600505E-13, -4.86276511E+03,
                      -7.52715109E+00])))

species(name=u'C4H6(7)',
        atoms='H:6 C:4',
        thermo=(NASA([100.00, 946.05],
                     [ 2.80599310E+00,  1.02584471E-02,  6.17260255E-05,
                      -9.01642687E-08,  3.59116961E-11,  1.16584972E+04,
                       1.20621434E+01]),
                NASA([946.05, 5000.00],
                     [ 1.24693720E+01,  1.00553901E-02, -2.41206872E-06,
                       4.57077303E-10, -3.93160571E-14,  8.01077795E+03,
                      -4.36374720E+01])))

species(name=u'C6H8(9)',
        atoms='H:8 C:6',
        thermo=(NASA([100.00, 941.22],
                     [ 1.38427980E+00,  4.14411503E-02,  1.94287417E-05,
                      -6.16688700E-08,  2.86503633E-11,  1.76317461E+04,
                       1.93257509E+01]),
                NASA([941.22, 5000.00],
                     [ 1.69619680E+01,  1.57221707E-02, -4.10118367E-06,
                       6.95736344E-10, -5.26521484E-14,  1.29061672E+04,
                      -6.44097553E+01])))

species(name=u'C4H6a(55)',
        atoms='H:6 C:4',
        thermo=(NASA([100.00, 950.38],
                     [ 3.41327601E+00, -4.60830638E-03,  9.57205603E-05,
                      -1.18800574E-07,  4.44495312E-11,  1.74039828E+04,
                       1.01517556E+01]),
                NASA([950.38, 5000.00],
                     [ 9.72156091E+00,  1.36879055E-02, -3.93842260E-06,
                       7.58710118E-10, -6.16013131E-14,  1.41795804E+04,
                      -3.06164436E+01])))

species(name=u'C8H10(78)',
        atoms='H:10 C:8',
        thermo=(NASA([100.00, 941.38],
                     [ 8.64508879E-02,  6.59507123E-02,  1.49007776E-06,
                      -6.06862449E-08,  3.13845046E-11,  2.39088929E+04,
                       2.66192822E+01]),
                NASA([941.38, 5000.00],
                     [ 2.28417755E+01,  1.96704891E-02, -5.08803462E-06,
                       8.53682038E-10, -6.42382395E-14,  1.73909786E+04,
                      -9.36509497E+01])))

species(name=u'C6H8(83)',
        atoms='H:8 C:6',
        thermo=(NASA([100.00, 982.45],
                     [ 2.05482741E+00,  2.86394809E-02,  3.83671565E-05,
                      -6.66308438E-08,  2.64365037E-11,  2.60818009E+04,
                       1.79213926E+01]),
                NASA([982.45, 5000.00],
                     [ 1.14504006E+01,  2.51395054E-02, -9.35048470E-06,
                       1.75511598E-09, -1.27609536E-13,  2.25584277E+04,
                      -3.57764240E+01])))

species(name=u'C6H8(122)',
        atoms='H:8 C:6',
        thermo=(NASA([100.00, 972.94],
                     [ 1.82686070E+00,  3.47046353E-02,  2.41070171E-05,
                      -5.44847920E-08,  2.29388832E-11,  1.99100661E+04,
                       1.81393315E+01]),
                NASA([972.94, 5000.00],
                     [ 1.21686202E+01,  2.40472785E-02, -8.58151834E-06,
                       1.57034031E-09, -1.12795334E-13,  1.63897115E+04,
                      -3.92195169E+01])))

species(name=u'C8H10(125)',
        atoms='H:10 C:8',
        thermo=(NASA([100.00, 966.00],
                     [ 5.26364552E-01,  5.92493286E-02,  6.02658334E-06,
                      -5.32875938E-08,  2.55662369E-11,  2.61873255E+04,
                       2.61353490E+01]),
                NASA([966.00, 5000.00],
                     [ 1.80461436E+01,  2.79985777E-02, -9.56971683E-06,
                       1.72854036E-09, -1.24398543E-13,  2.08757672E+04,
                      -6.77541641E+01])))

species(name=u'C6H10(137)',
        atoms='H:10 C:6',
        thermo=(NASA([100.00, 1045.42],
                     [ 1.54967147E+00,  4.21895837E-02,  1.04895346E-05,
                      -3.69750926E-08,  1.50988524E-11,  6.71774665E+03,
                       2.39491991E+01]),
                NASA([1045.42, 5000.00],
                     [ 1.12124240E+01,  3.19133588E-02, -1.30691489E-05,
                       2.47430092E-09, -1.76160956E-13,  3.23863001E+03,
                      -3.00742335E+01])))

species(name=u'C6H10(140)',
        atoms='H:10 C:6',
        thermo=(NASA([100.00, 1020.63],
                     [ 9.97427413E-01,  5.59777045E-02, -2.05880600E-05,
                      -1.17182304E-08,  8.13452041E-12,  6.30749855E+03,
                       2.38941836E+01]),
                NASA([1020.63, 5000.00],
                     [ 1.33828218E+01,  2.83661253E-02, -1.07663110E-05,
                       1.95749020E-09, -1.36589418E-13,  2.68926840E+03,
                      -4.14511818E+01])))

species(name=u'C6H10(214)',
        atoms='H:10 C:6',
        thermo=(NASA([100.00, 1020.63],
                     [ 9.97427413E-01,  5.59777045E-02, -2.05880600E-05,
                      -1.17182304E-08,  8.13452041E-12,  6.84996860E+03,
                       2.32490569E+01]),
                NASA([1020.63, 5000.00],
                     [ 1.33828218E+01,  2.83661253E-02, -1.07663110E-05,
                       1.95749020E-09, -1.36589418E-13,  3.23173845E+03,
                      -4.20963085E+01])))

species(name=u'C8H12(217)',
        atoms='H:12 C:8',
        thermo=(NASA([100.00, 1066.82],
                     [-6.90279206E-02,  7.77631354E-02, -4.25469002E-05,
                       2.07979121E-09,  4.19202863E-12,  1.30198536E+04,
                       2.96530167E+01]),
                NASA([1066.82, 5000.00],
                     [ 1.62725496E+01,  3.71185641E-02, -1.44020029E-05,
                       2.61623348E-09, -1.80996976E-13,  8.35933475E+03,
                      -5.57441245E+01])))

species(name=u'C6H12(222)',
        atoms='H:12 C:6',
        thermo=(NASA([100.00, 1018.92],
                     [ 1.21827324E+00,  4.88303598E-02,  8.49335826E-06,
                      -3.91899735E-08,  1.67107196E-11, -8.55522126E+03,
                       2.43074946E+01]),
                NASA([1018.92, 5000.00],
                     [ 1.16698119E+01,  3.59250755E-02, -1.39120664E-05,
                       2.55991991E-09, -1.79822160E-13, -1.21450086E+04,
                      -3.34751762E+01])))

species(name=u'C8H12(355)',
        atoms='H:12 C:8',
        thermo=(NASA([100.00, 969.72],
                     [ 3.93158683E-02,  6.94810364E-02, -5.67867310E-06,
                      -4.59940342E-08,  2.36868668E-11,  1.06247696E+04,
                       2.95643335E+01]),
                NASA([969.72, 5000.00],
                     [ 1.95488470E+01,  3.08499781E-02, -1.06480761E-05,
                       1.91982703E-09, -1.37319493E-13,  4.87359776E+03,
                      -7.41022237E+01])))

species(name=u'C6H12(549)',
        atoms='H:12 C:6',
        thermo=(NASA([100.00, 1083.88],
                     [ 1.36789859E+00,  4.60332170E-02,  1.03872042E-05,
                      -3.61548644E-08,  1.41144370E-11, -9.21215455E+03,
                       2.36685346E+01]),
                NASA([1083.88, 5000.00],
                     [ 1.07762218E+01,  3.82405519E-02, -1.60946813E-05,
                       3.05489613E-09, -2.16276948E-13, -1.28334192E+04,
                      -2.97757608E+01])))

species(name=u'C6H12(579)',
        atoms='H:12 C:6',
        thermo=(NASA([100.00, 1839.14],
                     [ 7.39766525E-01,  6.35836379E-02, -3.85035731E-05,
                       1.16726754E-08, -1.43915861E-12, -9.53996498E+03,
                       2.35193792E+01]),
                NASA([1839.14, 5000.00],
                     [ 1.56639911E+01,  3.11245214E-02, -1.20299805E-05,
                       2.07631491E-09, -1.34696441E-13, -1.50295162E+04,
                      -5.75746881E+01])))

species(name=u'C6H10(640)',
        atoms='H:10 C:6',
        thermo=(NASA([100.00, 1020.63],
                     [ 9.97427413E-01,  5.59777045E-02, -2.05880600E-05,
                      -1.17182304E-08,  8.13452041E-12,  6.30749855E+03,
                       2.38941836E+01]),
                NASA([1020.63, 5000.00],
                     [ 1.33828218E+01,  2.83661253E-02, -1.07663110E-05,
                       1.95749020E-09, -1.36589418E-13,  2.68926840E+03,
                      -4.14511818E+01])))

species(name=u'C8H12(647)',
        atoms='H:12 C:8',
        thermo=(NASA([100.00, 1016.52],
                     [-1.10429280E-01,  7.70814645E-02, -3.47833140E-05,
                      -1.00302869E-08,  9.42640217E-12,  1.21750142E+04,
                       2.97645889E+01]),
                NASA([1016.52, 5000.00],
                     [ 1.75623558E+01,  3.50022757E-02, -1.32158186E-05,
                       2.40320183E-09, -1.68059077E-13,  7.16317806E+03,
                      -6.27651255E+01])))

species(name=u'C6H12(648)',
        atoms='H:12 C:6',
        thermo=(NASA([100.00, 3144.72],
                     [ 1.62486600E+00,  5.81706891E-02, -2.94074668E-05,
                       6.41453677E-09, -5.27511383E-13, -9.95070725E+03,
                       2.05730324E+01]),
                NASA([3144.72, 5000.00],
                     [ 2.63049846E+01,  2.09689465E-02, -8.89163385E-06,
                       1.47783715E-09, -8.83519412E-14, -2.26006402E+04,
                      -1.22203751E+02])))

species(name=u'S(937)',
        atoms='H:14 C:10',
        thermo=(NASA([100.00, 1013.88],
                     [-1.03527521E+00,  8.99214218E-02, -2.04491278E-05,
                      -3.87098816E-08,  2.10701742E-11,  2.19500184E+04,
                       3.75590118E+01]),
                NASA([1013.88, 5000.00],
                     [ 2.29265009E+01,  4.12101070E-02, -1.61763087E-05,
                       3.05734712E-09, -2.20216432E-13,  1.47358972E+04,
                      -8.99879804E+01])))

species(name=u'S(1401)',
        atoms='H:10 C:6',
        thermo=(NASA([100.00, 2066.82],
                     [ 1.96487466E+00,  5.04479236E-02, -2.24823496E-05,
                       3.26198053E-09,  2.73496389E-15,  6.31812967E+03,
                       1.91308704E+01]),
                NASA([2066.82, 5000.00],
                     [ 2.01362223E+01,  2.52311191E-02, -1.14030833E-05,
                       2.01775234E-09, -1.28532875E-13, -3.31865112E+03,
                      -8.68696867E+01])))

species(name=u'S(1873)',
        atoms='H:14 C:10',
        thermo=(NASA([100.00, 1160.87],
                     [-1.01015775E+00,  9.64221881E-02, -5.82621494E-05,
                       1.24156524E-08,  7.64227212E-13,  2.15791627E+04,
                       3.60761300E+01]),
                NASA([1160.87, 5000.00],
                     [ 1.85105543E+01,  4.75366078E-02, -1.88404984E-05,
                       3.41278515E-09, -2.33582160E-13,  1.58087073E+04,
                      -6.63452014E+01])))

species(name=u'S(2069)',
        atoms='H:12 C:8',
        thermo=(NASA([100.00, 1520.46],
                     [ 3.33256816E-01,  7.70233903E-02, -5.19909225E-05,
                       1.84125603E-08, -2.72977416E-12,  1.52768255E+04,
                       2.88681811E+01]),
                NASA([1520.46, 5000.00],
                     [ 1.38154091E+01,  4.15547541E-02, -1.69995468E-05,
                       3.07009936E-09, -2.07104980E-13,  1.11770134E+04,
                      -4.18245982E+01])))

species(name=u'S(2172)',
        atoms='H:12 C:6',
        thermo=(NASA([100.00, 1829.14],
                     [ 7.23497206E-01,  6.40962986E-02, -3.88937857E-05,
                       1.18285810E-08, -1.46479639E-12, -9.55473307E+03,
                       2.34752956E+01]),
                NASA([1829.14, 5000.00],
                     [ 1.55815550E+01,  3.16049972E-02, -1.22495396E-05,
                       2.11773097E-09, -1.37578189E-13, -1.49903266E+04,
                      -5.71784952E+01])))

species(name=u'S(2352)',
        atoms='H:12 C:6',
        thermo=(NASA([100.00, 1917.57],
                     [ 2.29989638E+00,  4.93347109E-02, -1.39908418E-05,
                      -2.79410381E-09,  1.20747058E-12, -1.03230301E+04,
                       1.84311611E+01]),
                NASA([1917.57, 5000.00],
                     [ 1.85703860E+01,  3.37500613E-02, -1.61580314E-05,
                       2.95111967E-09, -1.92346931E-13, -1.99376584E+04,
                      -7.94569206E+01])))

species(name=u'S(2781)',
        atoms='H:12 C:6',
        thermo=(NASA([100.00, 1698.33],
                     [ 1.59095742E+00,  5.26758494E-02, -1.83561979E-05,
                      -1.06676417E-09,  1.11255271E-12, -1.06220126E+04,
                       2.16531738E+01]),
                NASA([1698.33, 5000.00],
                     [ 1.44977568E+01,  3.62929517E-02, -1.62656052E-05,
                       2.97191363E-09, -1.97262818E-13, -1.70273370E+04,
                      -5.34016107E+01])))

species(name=u'S(3416)',
        atoms='H:16 C:8',
        thermo=(NASA([100.00, 1867.12],
                     [-6.70204015E-01,  8.83974181E-02, -5.34449807E-05,
                       1.61777191E-08, -1.98265266E-12, -1.70126291E+04,
                       3.36977707E+01]),
                NASA([1867.12, 5000.00],
                     [ 2.13798953E+01,  4.11577141E-02, -1.54929470E-05,
                       2.62643602E-09, -1.68152333E-13, -2.52464975E+04,
                      -8.64487818E+01])))

species(name=u'S(3491)',
        atoms='H:12 C:6',
        thermo=(NASA([100.00, 1669.48],
                     [ 1.53174148E+00,  5.28581860E-02, -1.89682696E-05,
                      -7.62455342E-10,  1.08593390E-12, -9.44873727E+03,
                       2.14414196E+01]),
                NASA([1669.48, 5000.00],
                     [ 1.41707554E+01,  3.61096226E-02, -1.60799521E-05,
                       2.93994576E-09, -1.95627554E-13, -1.55549272E+04,
                      -5.16608415E+01])))

species(name=u'S(3564)',
        atoms='H:10 C:6',
        thermo=(NASA([100.00, 1057.19],
                     [ 1.32003537E+00,  4.84544999E-02, -5.79624644E-06,
                      -2.18049081E-08,  1.02541120E-11,  5.39114554E+03,
                       2.15965599E+01]),
                NASA([1057.19, 5000.00],
                     [ 1.18393426E+01,  3.09141412E-02, -1.24938257E-05,
                       2.33617137E-09, -1.64723228E-13,  1.92298921E+03,
                      -3.56214612E+01])))

species(name=u'S(3836)',
        atoms='H:10 C:6',
        thermo=(NASA([100.00, 1057.19],
                     [ 1.32003537E+00,  4.84544999E-02, -5.79624644E-06,
                      -2.18049081E-08,  1.02541120E-11,  5.44649962E+03,
                       2.34886632E+01]),
                NASA([1057.19, 5000.00],
                     [ 1.18393426E+01,  3.09141412E-02, -1.24938257E-05,
                       2.33617137E-09, -1.64723228E-13,  1.97834329E+03,
                      -3.37293579E+01])))

species(name=u'S(3837)',
        atoms='H:12 C:8',
        thermo=(NASA([100.00, 1093.32],
                     [ 2.36637697E-01,  7.13806073E-02, -3.04205239E-05,
                      -5.26761999E-09,  5.54497945E-12,  1.11111992E+04,
                       2.69517569E+01]),
                NASA([1093.32, 5000.00],
                     [ 1.41535962E+01,  4.07049724E-02, -1.61040105E-05,
                       2.93544374E-09, -2.02595338E-13,  6.85832312E+03,
                      -4.69635767E+01])))

species(name=u'S(4475)',
        atoms='H:10 C:6',
        thermo=(NASA([100.00, 1122.78],
                     [ 1.46684845E+00,  4.71514066E-02, -9.42741723E-06,
                      -1.33221128E-08,  6.31961252E-12,  6.52798365E+03,
                       2.25047068E+01]),
                NASA([1122.78, 5000.00],
                     [ 9.99431999E+00,  3.35595364E-02, -1.36975193E-05,
                       2.53063892E-09, -1.75468327E-13,  3.55492255E+03,
                      -2.43352419E+01])))

species(name=u'S(4603)',
        atoms='H:12 C:8',
        thermo=(NASA([100.00, 996.08],
                     [-1.55054420E-01,  7.76017702E-02, -3.37454095E-05,
                      -1.34614252E-08,  1.13198940E-11,  8.83061944E+03,
                       2.79505218E+01]),
                NASA([996.08, 5000.00],
                     [ 1.82444884E+01,  3.35255263E-02, -1.22645795E-05,
                       2.20885887E-09, -1.54520851E-13,  3.68623383E+03,
                      -6.81680129E+01])))

species(name=u'S(4704)',
        atoms='H:10 C:6',
        thermo=(NASA([100.00, 1057.19],
                     [ 1.32003537E+00,  4.84544999E-02, -5.79624644E-06,
                      -2.18049081E-08,  1.02541120E-11,  5.44649962E+03,
                       2.34886632E+01]),
                NASA([1057.19, 5000.00],
                     [ 1.18393426E+01,  3.09141412E-02, -1.24938257E-05,
                       2.33617137E-09, -1.64723228E-13,  1.97834329E+03,
                      -3.37293579E+01])))

species(name=u'S(4707)',
        atoms='H:12 C:8',
        thermo=(NASA([100.00, 996.08],
                     [-1.55053669E-01,  7.76017612E-02, -3.37453774E-05,
                      -1.34614673E-08,  1.13199121E-11,  8.65449277E+03,
                       2.81065170E+01]),
                NASA([996.08, 5000.00],
                     [ 1.82444854E+01,  3.35255314E-02, -1.22645825E-05,
                       2.20885957E-09, -1.54520909E-13,  3.51010846E+03,
                      -6.80119980E+01])))

species(name=u'S(4711)',
        atoms='H:12 C:8',
        thermo=(NASA([100.00, 1093.32],
                     [ 2.36638241E-01,  7.13806010E-02, -3.04205030E-05,
                      -5.26764556E-09,  5.54498963E-12,  1.09350726E+04,
                       2.71077528E+01]),
                NASA([1093.32, 5000.00],
                     [ 1.41535930E+01,  4.07049777E-02, -1.61040135E-05,
                       2.93544444E-09, -2.02595395E-13,  6.68219791E+03,
                      -4.68075604E+01])))

species(name=u'S(4829)',
        atoms='H:14 C:8',
        thermo=(NASA([100.00, 1474.90],
                     [-2.31526120E-01,  8.72378445E-02, -6.14237076E-05,
                       2.29177878E-08, -3.55917867E-12, -6.43120954E+03,
                       2.81547587E+01]),
                NASA([1474.90, 5000.00],
                     [ 1.55964562E+01,  4.43112931E-02, -1.77663233E-05,
                       3.18416127E-09, -2.14246112E-13, -1.11001152E+04,
                      -5.43565950E+01])))

species(name=u'S(4935)',
        atoms='H:18 C:10',
        thermo=(NASA([100.00, 1188.55],
                     [-1.97229919E+00,  1.15579785E-01, -7.74158075E-05,
                       2.33407035E-08, -1.82773542E-12, -1.12534832E+04,
                       3.96072071E+01]),
                NASA([1188.55, 5000.00],
                     [ 2.15390297E+01,  5.35901713E-02, -2.08092373E-05,
                       3.72033988E-09, -2.52351286E-13, -1.80527561E+04,
                      -8.29744654E+01])))

species(name=u'S(6486)',
        atoms='H:14 C:10',
        thermo=(NASA([100.00, 979.13],
                     [-1.61786644E+00,  1.06166096E-01, -6.04080465E-05,
                      -5.41801887E-09,  1.20423333E-11,  1.49251320E+04,
                       3.39372406E+01]),
                NASA([979.13, 5000.00],
                     [ 2.48037279E+01,  3.66649106E-02, -1.28202507E-05,
                       2.27494797E-09, -1.59205363E-13,  7.90859579E+03,
                      -1.02383319E+02])))

species(name=u'S(6539)',