units(length='cm', time='s', quantity='mol', act_energy='kcal/mol')

ideal_gas(name='gas',
          elements="H D T C Ci O Oi N Ne Ar He Si S Cl X",
          species="""n-heptane   Ar          He          Ne
                     N2          C2H4(2)     C4H8-1(3)   C4H8-2(4)
                     C4H6(7)     C3H6(24)    H2(47)      C2H6(94)
                     C6H10(97)   CH4(99)     C8H14(243)  C4H8(270)
                     C8H14(448)  C8H14(631)  S(1446)     S(1630)
                     S(2348)     S(2789)     S(2843)     S(2932)""",
          reactions='gas-*',
          initial_state=state(temperature=300.0, pressure=OneAtm))

ideal_interface(name='surface1',
                elements="H D T C Ci O Oi N Ne Ar He Si S Cl X",
                species="""X(1)        HX(5)       C2H3X(27)   allylX(28)
                          CH3X(29)    C2H5X(30)   C4H7X(31)   C4H7X(32)
                          C4H7X(33)   C4H7X(34)   C3H5X(35)   C4H7X(36)
                          C4H7X(37)   C2H2X(49)   C4H5X(56)   C4H5X(57)
                          C6H9X(66)   C8H13X(74)  C8H13X(75)  C6H9X(80)
                          CH2X(89)    C6H9X(109)  C5H7X(110)  C6H9X(128)
                          C6H9X(129)  C6H9X(130)  SX(146)     SX(147)
                          SX(148)     SX(149)     C3H4X(206)  C4H7X(228)
                          SX(231)     C3H5X(264)  C4H6X(265)  C4H7X(288)
                          SX(301)     C6H9X(328)  C6H9X(357)  C6H9X(358)
                          C6H9X(359)  C5H6X(408)  C6H9X(437)  C6H8X(438)
                          SX(439)     C6H9X(467)  C6H9X(468)  SX(497)
                          SX(524)     C6H9X(551)  C6H9X(552)  C6H9X(588)
                          C6H9X(589)  SX(590)     C6H8X(623)  SX(624)
                          C6H9X(657)  C6H9X(693)  C5H7X(759)  C4H6X(881)
                          C5H7X(922)  C5H7X(963)  SX(1006)    SX(1261)
                          SX(1262)    SX(1274)    SX(1303)    SX(1353)
                          SX(1382)    SX(1383)    SX(1384)    SX(1435)
                          SX(1438)    SX(1525)    SX(1526)    SX(1621)
                          SX(1671)    SX(1701)    SX(1702)    SX(1757)
                          SX(1788)    SX(1789)    SX(1790)    SX(1823)
                          SX(1824)    SX(1937)    SX(1991)    SX(1992)
                          SX(2072)    SX(2073)    SX(2124)    SX(2125)
                          SX(2154)    SX(2155)    SX(2204)    SX(2230)
                          SX(2339)    SX(2533)    SX(2534)    SX(2536)
                          SX(2537)    SX(2538)    SX(2747)    SX(2778)
                          SX(2779)    SX(2834)    SX(2920)    SX(2921)
                          SX(2923)    SX(3005)    CHX(3242)   SX(3495)
                          SX(3563)    SX(4313)""",
                site_density=2.72e-09,
                phases="gas",
          reactions='surface1-*',
                initial_state=state(temperature=300.0, pressure=OneAtm))

#-------------------------------------------------------------------------------
# Element data
#-------------------------------------------------------------------------------

element(symbol=u'X', atomic_mass=195.083)
element(symbol=u'Ci', atomic_mass=13.003)
element(symbol=u'D', atomic_mass=2.014)
element(symbol=u'Oi', atomic_mass=18.0)
element(symbol=u'T', atomic_mass=3.016)
#-------------------------------------------------------------------------------
# Species data
#-------------------------------------------------------------------------------

species(name=u'n-heptane',
        atoms='H:16 C:7',
        thermo=(NASA([100.00, 1262.73],
                     [-2.91681405E-03,  7.69373649E-02, -3.48025563E-05,
                       1.86095180E-09,  2.01573617E-12, -2.57829342E+04,
                       3.00312148E+01]),
                NASA([1262.73, 5000.00],
                     [ 1.38377915E+01,  4.85945016E-02, -1.95474548E-05,
                       3.52837178E-09, -2.39064676E-13, -3.05141556E+04,
                      -4.48642836E+01])))

species(name=u'Ar',
        atoms='Ar:1',
        thermo=(NASA([200.00, 1000.00],
                     [ 2.50000000E+00,  0.00000000E+00,  0.00000000E+00,
                       0.00000000E+00,  0.00000000E+00, -7.45375000E+02,
                       4.37967000E+00]),
                NASA([1000.00, 6000.00],
                     [ 2.50000000E+00,  0.00000000E+00,  0.00000000E+00,
                       0.00000000E+00,  0.00000000E+00, -7.45375000E+02,
                       4.37967000E+00])))

species(name=u'He',
        atoms='He:1',
        thermo=(NASA([200.00, 1000.00],
                     [ 2.50000000E+00,  0.00000000E+00,  0.00000000E+00,
                       0.00000000E+00,  0.00000000E+00, -7.45375000E+02,
                       9.28724000E-01]),
                NASA([1000.00, 6000.00],
                     [ 2.50000000E+00,  0.00000000E+00,  0.00000000E+00,
                       0.00000000E+00,  0.00000000E+00, -7.45375000E+02,
                       9.28724000E-01])))

species(name=u'Ne',
        atoms='Ne:1',
        thermo=(NASA([200.00, 1000.00],
                     [ 2.50000000E+00,  0.00000000E+00,  0.00000000E+00,
                       0.00000000E+00,  0.00000000E+00, -7.45375000E+02,
                       3.35532000E+00]),
                NASA([1000.00, 6000.00],
                     [ 2.50000000E+00,  0.00000000E+00,  0.00000000E+00,
                       0.00000000E+00,  0.00000000E+00, -7.45375000E+02,
                       3.35532000E+00])))

species(name=u'N2',
        atoms='N:2',
        thermo=(NASA([200.00, 1000.00],
                     [ 3.53101000E+00, -1.23661000E-04, -5.02999000E-07,
                       2.43531000E-09, -1.40881000E-12, -1.04698000E+03,
                       2.96747000E+00]),
                NASA([1000.00, 6000.00],
                     [ 2.95258000E+00,  1.39690000E-03, -4.92632000E-07,
                       7.86010000E-11, -4.60755000E-15, -9.23949000E+02,
                       5.87189000E+00])))

species(name=u'C2H4(2)',
        atoms='H:4 C:2',
        thermo=(NASA([100.00, 979.36],
                     [ 3.97471606E+00, -4.75844285E-03,  4.16783770E-05,
                      -4.51392516E-08,  1.54224761E-11,  4.91540746E+03,
                       3.62430844E+00]),
                NASA([979.36, 5000.00],
                     [ 3.55660610E+00,  1.10627464E-02, -4.17019079E-06,
                       7.85586770E-10, -5.70060829E-14,  4.32046489E+03,
                       2.17719479E+00])))

species(name=u'C4H8-1(3)',
        atoms='H:8 C:4',
        thermo=(NASA([100.00, 1007.28],
                     [ 2.58772906E+00,  2.32777969E-02,  1.93412349E-05,
                      -3.55496333E-08,  1.36906009E-11, -1.91872926E+03,
                       1.45750618E+01]),
                NASA([1007.28, 5000.00],
                     [ 7.20517168E+00,  2.36361568E-02, -9.03150028E-06,
                       1.65392666E-09, -1.16019260E-13, -3.79733937E+03,
                      -1.24426257E+01])))

species(name=u'C4H8-2(4)',
        atoms='H:8 C:4',
        thermo=(NASA([100.00, 1157.79],
                     [ 2.51998327E+00,  2.76812799E-02,  9.43783469E-07,
                      -1.25009101E-08,  4.67144666E-12, -3.34374767E+03,
                       1.30195623E+01]),
                NASA([1157.79, 5000.00],
                     [ 6.04225708E+00,  2.60072350E-02, -1.04843374E-05,
                       1.90880922E-09, -1.30600505E-13, -4.86276511E+03,
                      -7.52715109E+00])))

species(name=u'C4H6(7)',
        atoms='H:6 C:4',
        thermo=(NASA([100.00, 946.05],
                     [ 2.80599310E+00,  1.02584471E-02,  6.17260255E-05,
                      -9.01642687E-08,  3.59116961E-11,  1.16584972E+04,
                       1.20621434E+01]),
                NASA([946.05, 5000.00],
                     [ 1.24693720E+01,  1.00553901E-02, -2.41206872E-06,
                       4.57077303E-10, -3.93160571E-14,  8.01077795E+03,
                      -4.36374720E+01])))

species(name=u'C3H6(24)',
        atoms='H:6 C:3',
        thermo=(NASA([100.00, 983.75],
                     [ 3.31912102E+00,  8.17958674E-03,  3.34736123E-05,
                      -4.36193684E-08,  1.58213364E-11,  7.49325328E+02,
                       9.54025058E+00]),
                NASA([983.75, 5000.00],
                     [ 5.36755173E+00,  1.70743019E-02, -6.35107626E-06,
                       1.16619529E-09, -8.27620279E-14, -4.87138326E+02,
                      -4.54467529E+00])))

species(name=u'H2(47)',
        atoms='H:2',
        thermo=(NASA([100.00, 1959.08],
                     [ 3.43536412E+00,  2.12710353E-04, -2.78625043E-07,
                       3.40267167E-10, -7.76031998E-14, -1.03135984E+03,
                      -3.90841732E+00]),
                NASA([1959.08, 5000.00],
                     [ 2.78816583E+00,  5.87640942E-04,  1.59010417E-07,
                      -5.52739026E-11,  4.34310984E-15, -5.96144270E+02,
                       1.12732655E-01])))

species(name=u'C2H6(94)',
        atoms='H:6 C:2',
        thermo=(NASA([100.00, 1012.42],
                     [ 3.72239291E+00,  1.65083841E-03,  3.44175530E-05,
                      -3.76858229E-08,  1.24450657E-11, -1.15575901E+04,
                       4.68247999E+00]),
                NASA([1012.42, 5000.00],
                     [ 2.82848257E+00,  1.73040568E-02, -6.73334245E-06,
                       1.23742024E-09, -8.65676410E-14, -1.19978080E+04,
                       5.93811707E+00])))

species(name=u'C6H10(97)',
        atoms='H:10 C:6',
        thermo=(NASA([100.00, 1020.63],
                     [ 9.97427413E-01,  5.59777045E-02, -2.05880600E-05,
                      -1.17182304E-08,  8.13452041E-12,  6.30749855E+03,
                       2.38941836E+01]),
                NASA([1020.63, 5000.00],
                     [ 1.33828218E+01,  2.83661253E-02, -1.07663110E-05,
                       1.95749020E-09, -1.36589418E-13,  2.68926840E+03,
                      -4.14511818E+01])))

species(name=u'CH4(99)',
        atoms='H:4 C:1',
        thermo=(NASA([100.00, 1084.12],
                     [ 4.20541524E+00, -5.35557362E-03,  2.51123265E-05,
                      -2.13762843E-08,  5.97523937E-12, -1.01619433E+04,
                      -9.21279283E-01]),
                NASA([1084.12, 5000.00],
                     [ 9.08265721E-01,  1.14540858E-02, -4.57173828E-06,
                       8.29191671E-10, -5.66314895E-14, -9.71997444E+03,
                       1.39930944E+01])))

species(name=u'C8H14(243)',
        atoms='H:14 C:8',
        thermo=(NASA([100.00, 1014.29],
                     [-3.67121846E-01,  8.14233516E-02, -3.11110886E-05,
                      -1.65487757E-08,  1.19185866E-11, -3.02333684E+03,
                       3.00035003E+01]),
                NASA([1014.29, 5000.00],
                     [ 1.79686767E+01,  3.98264136E-02, -1.50150741E-05,
                       2.72531006E-09, -1.90287561E-13, -8.32275149E+03,
                      -6.65042554E+01])))

species(name=u'C4H8(270)',
        atoms='H:8 C:4',
        thermo=(NASA([100.00, 1061.33],
                     [ 2.52504770E+00,  2.64752782E-02,  7.08359238E-06,
                      -2.07731462E-08,  8.00430055E-12, -4.02607130E+03,
                       1.28857274E+01]),
                NASA([1061.33, 5000.00],
                     [ 6.48672669E+00,  2.49943921E-02, -9.83283171E-06,
                       1.79343299E-09, -1.24008235E-13, -5.62452310E+03,
                      -1.00316397E+01])))

species(name=u'C8H14(448)',
        atoms='H:14 C:8',
        thermo=(NASA([100.00, 1506.76],
                     [ 5.49675181E-02,  8.43985440E-02, -5.64633487E-05,
                       1.98661295E-08, -2.94599969E-12, -7.77393079E+02,
                       2.95663347E+01]),
                NASA([1506.76, 5000.00],
                     [ 1.39949012E+01,  4.73919655E-02, -1.96226018E-05,
                       3.56583689E-09, -2.41458224E-13, -4.97819756E+03,
                      -4.34005510E+01])))

species(name=u'C8H14(631)',
        atoms='H:14 C:8',
        thermo=(NASA([100.00, 999.32],
                     [-8.27296041E-02,  7.33926821E-02, -9.70961131E-06,
                      -3.77339221E-08,  1.91784792E-11, -2.27794802E+03,
                       3.16114703E+01]),
                NASA([999.32, 5000.00],
                     [ 1.74908493E+01,  3.99675318E-02, -1.49508424E-05,
                       2.72972667E-09, -1.92366979E-13, -7.63361766E+03,
                      -6.23819175E+01])))

species(name=u'S(1446)',
        atoms='H:18 C:10',
        thermo=(NASA([100.00, 1158.48],
                     [-1.73167591E+00,  1.09077891E-01, -5.83333229E-05,
                       5.40067358E-09,  3.60301005E-12, -6.92483725E+03,
                       4.08092886E+01]),
                NASA([1158.48, 5000.00],
                     [ 2.11409181E+01,  5.59043600E-02, -2.28913870E-05,
                       4.22976090E-09, -2.93014074E-13, -1.39556654E+04,
                      -8.03749852E+01])))

species(name=u'S(1630)',
        atoms='H:14 C:8',
        thermo=(NASA([100.00, 1061.60],
                     [-2.92612015E-01,  8.13598166E-02, -3.75111047E-05,
                      -5.26746011E-09,  6.79996745E-12, -3.15203310E+03,
                       3.11249298E+01]),
                NASA([1061.60, 5000.00],
                     [ 1.65258017E+01,  4.22160438E-02, -1.64331635E-05,
                       2.99218456E-09, -2.07335165E-13, -8.08806756E+03,
                      -5.74492182E+01])))

species(name=u'S(2348)',
        atoms='H:18 C:10',
        thermo=(NASA([100.00, 1188.78],
                     [-1.95300717E+00,  1.15046892E-01, -7.59923563E-05,
                       2.20571103E-08, -1.46154816E-12, -1.03349424E+04,
                       4.06077933E+01]),
                NASA([1188.78, 5000.00],
                     [ 2.15567328E+01,  5.36921349E-02, -2.09728234E-05,
                       3.76285270E-09, -2.55770737E-13, -1.71787854E+04,
                      -8.21540077E+01])))

species(name=u'S(2789)',
        atoms='H:18 C:10',
        thermo=(NASA([100.00, 1038.10],
                     [-1.63606842E+00,  1.05948223E-01, -4.48721255E-05,
                      -1.37610845E-08,  1.19267863E-11, -9.13856725E+03,
                       4.08578356E+01]),
                NASA([1038.10, 5000.00],
                     [ 2.12270975E+01,  5.35110627E-02, -2.06291097E-05,
                       3.76028699E-09, -2.61802446E-13, -1.58068004E+04,
                      -7.95529940E+01])))

species(name=u'S(2843)',
        atoms='H:18 C:10',
        thermo=(NASA([100.00, 1039.92],
                     [-1.68892614E+00,  1.04892160E-01, -3.63678012E-05,
                      -2.44904322E-08,  1.57571722E-11, -8.20566676E+03,
                       3.91111957E+01]),
                NASA([1039.92, 5000.00],
                     [ 2.26524637E+01,  5.26991456E-02, -2.08505326E-05,
                       3.87716665E-09, -2.73674615E-13, -1.55087267E+04,
                      -9.00469670E+01])))

species(name=u'S(2932)',
        atoms='H:18 C:10',
        thermo=(NASA([100.00, 1091.06],
                     [-1.75140178E+00,  1.10205167E-01, -6.07838718E-05,
                       5.37602654E-09,  4.56468895E-12, -9.27267051E+03,
                       3.99141768E+01]),
                NASA([1091.06, 5000.00],
                     [ 2.07353004E+01,  5.46510751E-02, -2.13704545E-05,
                       3.87875579E-09, -2.67347996E-13, -1.57797898E+04,
                      -7.78643522E+01])))

species(name=u'X(1)',
        atoms='X:1',
        thermo=(NASA([100.00, 1554.80],
                     [ 7.10139498E-03, -4.25619522E-05,  8.98533016E-08,
                      -7.80193649E-11,  2.32465471E-14, -8.76101712E-01,
                      -3.11211229E-02]),
                NASA([1554.80, 5000.00],
                     [ 1.60299900E-01, -2.52235409E-04,  1.14181275E-07,
                      -1.21471653E-11,  3.85790025E-16, -7.08100885E+01,
                      -9.09527530E-01])))

species(name=u'HX(5)',
        atoms='H:1 X:1',
        thermo=(NASA([100.00, 952.91],
                     [-3.80965452E-01,  5.47228709E-03,  2.60912778E-06,
                      -9.64961980E-09,  4.63946753E-12, -3.62029043E+03,
                       1.01725550E+00]),
                NASA([952.91, 5000.00],
                     [ 2.80339655E+00, -5.41047017E-04,  4.99507978E-07,
                      -7.54963647E-11,  3.06772366E-15, -4.56103985E+03,
                      -1.59436787E+01])))

species(name=u'C2H3X(27)',
        atoms='H:3 C:2 X:1',
        thermo=(NASA([100.00, 928.62],
                     [ 3.83091018E+00, -8.76381562E-03,  6.97956896E-05,
                      -8.67969174E-08,  3.33218121E-11,  1.60029382E+03,
                      -1.81151753E+01]),
                NASA([928.62, 5000.00],
                     [ 8.78054562E+00,  1.92497720E-03,  8.25825014E-07,
                      -1.63749818E-10,  5.71728318E-15, -6.99109301E+02,
                      -4.90588618E+01])))

species(name=u'allylX(28)',
        atoms='H:5 C:3 X:1',
        thermo=(NASA([100.00, 937.34],
                     [ 3.44148119E+00, -3.47700003E-03,  8.25933681E-05,
                      -1.05556823E-07,  4.04445066E-11, -1.94154431E+03,
                      -6.88846669E+00]),
                NASA([937.34, 5000.00],
                     [ 9.98148902E+00,  8.92268754E-03, -1.75442587E-06,
                       3.12285771E-10, -2.84156572E-14, -4.93834195E+03,
                      -4.74626902E+01])))

species(name=u'CH3X(29)',
        atoms='H:3 C:1 X:1',
        thermo=(NASA([100.00, 848.30],
                     [-1.21090496E+00,  2.92390681E-02, -4.49011079E-05,
                       3.86009808E-08, -1.30361041E-11, -6.12022281E+03,
                       6.80939750E+00]),
                NASA([848.30, 5000.00],
                     [ 1.62290877E+00,  1.12987268E-02, -5.08316908E-06,
                       9.46833581E-10, -6.42885536E-14, -6.43628772E+03,
                      -5.42501059E+00])))

species(name=u'C2H5X(30)',
        atoms='H:5 C:2 X:1',
        thermo=(NASA([100.00, 803.81],
                     [-1.64625424E+00,  3.89626488E-02, -4.31128887E-05,
                       2.97076939E-08, -8.80222915E-12, -1.01038978E+04,
                       9.27323637E+00]),
                NASA([803.81, 5000.00],
                     [ 1.97598112E+00,  2.09382766E-02, -9.47916922E-06,
                       1.81392948E-09, -1.27206354E-13, -1.06862466E+04,
                      -7.41107956E+00])))

species(name=u'C4H7X(31)',
        atoms='H:7 C:4 X:1',
        thermo=(NASA([100.00, 971.02],
                     [ 2.64365035E+00,  1.79007589E-02,  4.24443189E-05,
                      -6.44028479E-08,  2.49593993E-11, -5.89825374E+03,
                      -6.69991651E+00]),
                NASA([971.02, 5000.00],
                     [ 9.25871667E+00,  2.04064152E-02, -7.39143670E-06,
                       1.37021231E-09, -9.94133357E-14, -8.58573787E+03,
                      -4.56426102E+01])))

species(name=u'C4H7X(32)',
        atoms='H:7 C:4 X:1',
        thermo=(NASA([100.00, 986.67],
                     [ 2.45798205E+00,  2.47217336E-02,  2.01285964E-05,
                      -4.02735564E-08,  1.62485845E-11,  2.50393331E+03,
                      -5.12991781E+00]),
                NASA([986.67, 5000.00],
                     [ 8.87898065E+00,  2.09043993E-02, -7.83851223E-06,
                       1.44076477E-09, -1.02346878E-13,  1.55577199E+02,
                      -4.15007572E+01])))

species(name=u'C4H7X(33)',
        atoms='H:7 C:4 X:1',
        thermo=(NASA([100.00, 965.06],
                     [ 2.56877619E+00,  1.97500674E-02,  3.72961301E-05,
                      -6.04017092E-08,  2.39989018E-11, -6.16967460E+03,
                      -8.56564322E+00]),
                NASA([965.06, 5000.00],
                     [ 9.89778724E+00,  1.86142959E-02, -6.38884453E-06,
                       1.17309353E-09, -8.55406646E-14, -8.94596581E+03,
                      -5.07182348E+01])))

species(name=u'C4H7X(34)',
        atoms='H:7 C:4 X:1',
        thermo=(NASA([100.00, 949.35],
                     [ 2.54254539E+00,  1.77389010E-02,  4.93877612E-05,
                      -7.72878178E-08,  3.10660019E-11, -4.94404130E+03,
                      -8.46783968E+00]),
                NASA([949.35, 5000.00],
                     [ 1.15220223E+01,  1.60005944E-02, -4.89823595E-06,
                       8.83972924E-10, -6.63710570E-14, -8.27557364E+03,
                      -5.98888028E+01])))

species(name=u'C3H5X(35)',
        atoms='H:5 C:3 X:1',
        thermo=(NASA([100.00, 939.06],
                     [ 3.23683359E+00,  3.73132320E-03,  6.01028900E-05,
                      -8.16245569E-08,  3.18536011E-11, -2.21294777E+03,
                      -1.35295467E+01]),
                NASA([939.06, 5000.00],
                     [ 9.70183185E+00,  9.48309646E-03, -2.25953763E-06,
                       3.98431327E-10, -3.27118882E-14, -4.89497670E+03,
                      -5.21282869E+01])))

species(name=u'C4H7X(36)',
        atoms='H:7 C:4 X:1',
        thermo=(NASA([100.00, 963.12],
                     [ 2.84102368E+00,  1.13895351E-02,  6.15506441E-05,
                      -8.44875974E-08,  3.21378540E-11, -6.13743314E+03,
                      -1.87433326E+00]),
                NASA([963.12, 5000.00],
                     [ 9.41784464E+00,  1.97004205E-02, -6.87716325E-06,
                       1.28327784E-09, -9.49057432E-14, -9.05661274E+03,
                      -4.19345048E+01])))

species(name=u'C4H7X(37)',
        atoms='H:7 C:4 X:1',
        thermo=(NASA([100.00, 984.27],
                     [ 2.62894525E+00,  1.98268868E-02,  3.32348848E-05,
                      -5.27966654E-08,  2.03669508E-11, -7.70631459E+03,
                      -9.11738219E+00]),
                NASA([984.27, 5000.00],
                     [ 8.50219213E+00,  2.14492211E-02, -8.08467087E-06,
                       1.50188932E-09, -1.07732976E-13, -1.00972457E+04,
                      -4.36317384E+01])))

species(name=u'C2H2X(49)',
        atoms='H:2 C:2 X:1',
        thermo=(NASA([100.00, 1146.89],
                     [-1.35665997E+00,  2.85338019E-02, -3.11240758E-05,
                       1.70134067E-08, -3.63322671E-12, -2.34791952E+03,
                       3.79543665E+00]),
                NASA([1146.89, 5000.00],
                     [ 4.86807469E+00,  6.82428196E-03, -2.73110334E-06,
                       5.09415334E-10, -3.57467832E-14, -3.77576580E+03,
                      -2.70885611E+01])))

species(name=u'C4H5X(56)',
        atoms='H:5 C:4 X:1',
        thermo=(NASA([100.00, 936.52],
                     [ 2.68471723E+00,  1.36244496E-02,  5.32591849E-05,
                      -8.32912448E-08,  3.41499374E-11,  3.69352401E+03,
                      -1.06510487E+01]),
                NASA([936.52, 5000.00],
                     [ 1.29012266E+01,  8.96921861E-03, -1.71920076E-06,
                       2.89744517E-10, -2.58686364E-14,  7.04850646E+01,
                      -6.83963397E+01])))

species(name=u'C4H5X(57)',
        atoms='H:5 C:4 X:1',
        thermo=(NASA([100.00, 928.63],
                     [ 2.64232495E+00,  8.31109593E-03,  8.12146261E-05,
                      -1.21398701E-07,  4.98630759E-11,  8.87643276E+03,
                      -1.03932963E+01]),
                NASA([928.63, 5000.00],
                     [ 1.69490474E+01,  2.00818812E-03,  2.03468841E-06,
                      -4.02657023E-10,  1.85400094E-14,  3.83393839E+03,
                      -9.11990785E+01])))

species(name=u'C6H9X(66)',
        atoms='H:9 C:6 X:1',
        thermo=(NASA([100.00, 959.61],
                     [ 9.97316280E-01,  5.45668000E-02, -1.20062319E-05,
                      -2.57197904E-08,  1.47243152E-11,  1.09007926E+04,
                       4.10405037E+00]),
                NASA([959.61, 5000.00],
                     [ 1.47073597E+01,  2.48050721E-02, -8.29407345E-06,
                       1.44239761E-09, -1.00346470E-13,  7.00859224E+03,
                      -6.80438434E+01])))

species(name=u'C8H13X(74)',
        atoms='H:13 C:8 X:1',
        thermo=(NASA([100.00, 962.58],
                     [-8.50632885E-02,  7.19628197E-02, -9.55363794E-07,
                      -5.20841139E-08,  2.59698691E-11,  1.77345175E+03,
                       1.24797974E+01]),
                NASA([962.58, 5000.00],
                     [ 1.87814445E+01,  3.64631505E-02, -1.24875123E-05,
                       2.20322328E-09, -1.54635387E-13, -3.84612839E+03,
                      -8.81443541E+01])))

species(name=u'C8H13X(75)',
        atoms='H:13 C:8 X:1',
        thermo=(NASA([100.00, 1006.92],
                     [ 6.30914034E-02,  6.93235141E-02, -6.44466409E-07,
                      -4.55410039E-08,  2.13948079E-11,  4.99469706E+02,
                       1.27242166E+01]),
                NASA([1006.92, 5000.00],
                     [ 1.72428523E+01,  4.01885162E-02, -1.55073190E-05,
                       2.87620836E-09, -2.04302005E-13, -4.94298912E+03,
                      -8.01222363E+01])))

species(name=u'C6H9X(80)',
        atoms='H:9 C:6 X:1',
        thermo=(NASA([100.00, 995.64],
                     [ 1.00158150E+00,  5.37831764E-02, -1.05077719E-05,
                      -2.52898569E-08,  1.36194364E-11,  1.03782995E+04,
                       4.73928304E+00]),
                NASA([995.64, 5000.00],
                     [ 1.48279675E+01,  2.56881420E-02, -9.53965888E-06,
                       1.75504791E-09, -1.24935257E-13,  6.26437453E+03,
                      -6.87379050E+01])))

species(name=u'CH2X(89)',
        atoms='H:2 C:1 X:1',
        thermo=(NASA([100.00, 1199.82],
                     [-1.02006594E+00,  2.03778552E-02, -2.17291076E-05,
                       1.15868543E-08, -2.38469979E-12, -3.52138299E+02,
                       2.99160459E+00]),
                NASA([1199.82, 5000.00],
                     [ 3.89285483E+00,  3.99892281E-03, -1.25227942E-06,
                       2.09081361E-10, -1.39642489E-14, -1.53105717E+03,
                      -2.16053707E+01])))

species(name=u'C6H9X(109)',
        atoms='H:9 C:6 X:1',
        thermo=(NASA([100.00, 982.39],
                     [ 1.17199359E+00,  4.77160396E-02,  9.26098866E-06,
                      -4.64666332E-08,  2.11967020E-11,  2.66082096E+03,
                       1.23439845E+00]),
                NASA([982.39, 5000.00],
                     [ 1.50560256E+01,  2.55321029E-02, -9.31181137E-06,
                       1.72744250E-09, -1.24865395E-13, -1.72451562E+03,
                      -7.39370609E+01])))

species(name=u'C5H7X(110)',
        atoms='H:7 C:5 X:1',
        thermo=(NASA([100.00, 955.26],
                     [ 2.14807862E+00,  2.30471639E-02,  5.52785985E-05,
                      -8.99888281E-08,  3.64764303E-11,  4.33766259E+03,
                      -3.16802051E-01]),
                NASA([955.26, 5000.00],
                     [ 1.41485498E+01,  1.72239138E-02, -5.33809619E-06,
                       9.99788941E-10, -7.72182082E-14,  1.79066963E+01,
                      -6.82727003E+01])))

species(name=u'C6H9X(128)',
        atoms='H:9 C:6 X:1',
        thermo=(NASA([100.00, 963.89],
                     [ 1.36441256E+00,  3.75099032E-02,  4.64428330E-05,
                      -9.02254047E-08,  3.78060338E-11, -3.70603304E+03,
                      -1.08347523E+00]),
                NASA([963.89, 5000.00],
                     [ 1.75345551E+01,  2.11304921E-02, -7.00461741E-06,
                       1.33734030E-09, -1.02627510E-13, -9.17963088E+03,
                      -9.07235001E+01])))

species(name=u'C6H9X(129)',
        atoms='H:9 C:6 X:1',
        thermo=(NASA([100.00, 961.61],
                     [ 9.56162142E-01,  5.11594912E-02,  6.21920554E-06,
                      -4.93493283E-08,  2.38502949E-11,  3.17214831E+03,
                       7.62808957E-01]),
                NASA([961.61, 5000.00],
                     [ 1.73730683E+01,  2.12321143E-02, -6.93773963E-06,
                       1.25832417E-09, -9.23409490E-14, -1.75882984E+03,
                      -8.70188932E+01])))

species(name=u'C6H9X(130)',
        atoms='H:9 C:6 X:1',
        thermo=(NASA([100.00, 961.61],
                     [ 9.56162142E-01,  5.11594912E-02,  6.21920554E-06,
                      -4.93493283E-08,  2.38502949E-11,  3.17214831E+03,
                       7.62808957E-01]),
                NASA([961.61, 5000.00],
                     [ 1.73730683E+01,  2.12321143E-02, -6.93773963E-06,
                       1.25832417E-09, -9.23409490E-14, -1.75882984E+03,
                      -8.70188932E+01])))

species(name=u'SX(146)',
        atoms='H:13 C:8 X:1',
        thermo=(NASA([100.00, 1007.39],
                     [ 3.16629016E-01,  6.41662080E-02,  9.76855992E-06,
                      -5.25310921E-08,  2.30358974E-11, -3.61271706E+03,
                       9.83914149E+00]),
                NASA([1007.39, 5000.00],
                     [ 1.53069778E+01,  4.32974701E-02, -1.67121938E-05,
                       3.08149249E-09, -2.17529072E-13, -8.59423986E+03,
                      -7.23255762E+01])))

species(name=u'SX(147)',
        atoms='H:13 C:8 X:1',
        thermo=(NASA([100.00, 1010.72],
                     [-4.20512090E-03,  7.08154843E-02, -2.81427932E-06,
                      -4.36278702E-08,  2.07014762E-11, -3.31523460E+03,
                       1.20321579E+01]),
                NASA([1010.72, 5000.00],
                     [ 1.73721619E+01,  4.08295221E-02, -1.58690204E-05,
                       2.94719853E-09, -2.09209730E-13, -8.80867023E+03,
                      -8.17835517E+01])))
