units(length='cm', time='s', quantity='mol', act_energy='kcal/mol')

ideal_gas(name='gas',
          elements="H D T C Ci O Oi N Ne Ar He Si S Cl X",
          species="""n-heptane   Ar          He          Ne
                     N2          C2H4(2)     C4H8-1(3)   C4H8-2(4)
                     C4H6(7)     C6H8(9)     C3H6(24)    H2(47)
                     C8H12(184)  C8H12(333)  S(428)      C5H8c(451)
                     S(479)      C6H10(559)  C8H12(561)  S(590)
                     C7H12(753)  C7H10(766)  C7H12(802)  C9H14(805)
                     C9H14(806)  C6H10(809)  C6H10(810)  C5H8g(839)
                     CH4(1123)   C4H8(1151)  C2H6(1156)  S(1436)
                     S(1439)     S(1445)     S(1469)     S(1482)
                     S(1544)     S(1677)     S(2154)     S(2221)
                     S(2247)     S(2382)     S(2528)     S(2686)
                     S(2692)     S(3012)     S(3089)     S(4875)
                     S(7128)""",
          reactions='gas-*',
          initial_state=state(temperature=300.0, pressure=OneAtm))

ideal_interface(name='surface1',
                elements="H D T C Ci O Oi N Ne Ar He Si S Cl X",
                species="""X(1)        HX(5)       C2H3X(27)   allylX(28)
                          CH3X(29)    C2H5X(30)   C4H7X(31)   C4H7X(32)
                          C4H7X(33)   C4H7X(34)   C3H5X(35)   C4H7X(36)
                          C4H7X(37)   C4H5X(56)   C4H5X(57)   C6H9X(65)
                          C6H9X(66)   C6H9X(72)   C8H11X(76)  C8H11X(77)
                          C6H9X(80)   C8H11X(85)  C8H11X(86)  C6H7X(94)
                          C6H7X(95)   C6H7X(96)   SX(109)     SX(145)
                          SX(149)     SX(150)     C6H7X(159)  C6H9X(175)
                          C5H7X(177)  SX(202)     C6H9X(203)  SX(204)
                          SX(205)     SX(206)     SX(207)     SX(208)
                          SX(270)     C7H9X(284)  SX(296)     C7H9X(327)
                          C3H5X(346)  C4H7X(347)  SX(348)     C6H9X(349)
                          SX(350)     SX(351)     SX(352)     SX(353)
                          SX(434)     SX(435)     C5H7X(446)  SX(464)
                          SX(469)     SX(470)     SX(485)     SX(486)
                          SX(513)     SX(514)     SX(517)     C6H9X(545)
                          SX(562)     C6H9X(600)  C6H9X(633)  C6H9X(686)
                          C5H9X(713)  SX(718)     SX(719)     SX(722)
                          SX(723)     C5H9X(760)  SX(764)     SX(765)
                          SX(813)     C5H7X(996)  C5H7X(997)  C5H7X(998)
                          SX(1013)    SX(1014)    SX(1125)    SX(1194)
                          SX(1195)    SX(1359)    SX(1360)    SX(1405)
                          SX(1422)    SX(1453)    SX(1455)    SX(1459)
                          SX(1460)    SX(1494)    SX(1587)    SX(1591)
                          SX(1592)    SX(1611)    SX(1612)    SX(1613)
                          SX(1614)    SX(1626)    SX(1758)    SX(1978)
                          SX(2026)    SX(2028)    SX(2257)    SX(2367)
                          SX(2412)    SX(2413)    SX(2460)    SX(2480)
                          SX(2513)    SX(2514)    SX(2677)    SX(2682)
                          SX(2683)    SX(2698)    SX(2699)    SX(2765)
                          SX(2766)    SX(2779)    SX(2929)    SX(2930)
                          SX(2998)    SX(3001)    SX(3002)    SX(3051)
                          SX(3052)    SX(3111)    SX(3120)    SX(3121)
                          SX(3123)    SX(3128)    SX(3135)    SX(3152)
                          SX(3602)    SX(3630)    SX(3631)    SX(3633)
                          SX(3863)    SX(3864)    SX(3865)    SX(3866)
                          SX(3867)    SX(3868)    SX(3869)    SX(3870)
                          SX(3899)    SX(3900)    SX(3902)    SX(3903)
                          SX(3904)    SX(3905)    SX(3906)    SX(3907)
                          SX(4091)    SX(4092)    SX(4095)    SX(4129)
                          SX(4134)    SX(4140)    SX(4148)    SX(4207)
                          SX(4208)    SX(4209)    SX(4210)    SX(4211)
                          SX(4212)    SX(4213)    SX(4214)    SX(4282)
                          SX(4309)    SX(4379)    SX(4399)    SX(4400)
                          SX(4402)    SX(4403)    SX(4404)    SX(4405)
                          SX(4406)    SX(4432)    SX(4455)    SX(4476)
                          SX(4509)    SX(4581)    SX(4582)    SX(4585)
                          SX(4590)    SX(4591)    SX(4604)    SX(4612)
                          SX(4645)    SX(4658)    SX(4685)    SX(4686)
                          SX(4687)    SX(4688)    SX(4689)    SX(4690)
                          SX(4691)    SX(4735)    SX(4739)    SX(4744)
                          SX(4760)    SX(4781)    SX(4782)    SX(4786)
                          SX(4787)    SX(4788)    SX(4805)    SX(4842)
                          SX(4843)    SX(4897)    SX(4989)    SX(4990)
                          SX(4992)    SX(5022)    SX(5023)    SX(5028)
                          SX(5029)    SX(5032)    SX(5358)    SX(5359)
                          SX(5368)    SX(5379)    SX(5466)    SX(5715)
                          SX(5716)    SX(5879)    SX(5950)    SX(5951)
                          SX(6226)    SX(6379)    SX(6454)    SX(6455)
                          SX(6458)    SX(6504)    SX(6506)    SX(6509)
                          SX(6513)    SX(6514)    SX(6730)    SX(6803)
                          SX(6912)    SX(6991)    SX(7120)    SX(7133)
                          SX(7134)    SX(7219)    SX(7220)    SX(7488)
                          SX(7499)    SX(7508)    SX(7519)    SX(7538)
                          SX(7539)    SX(7548)    SX(7559)    SX(7590)
                          SX(7606)    SX(7608)    SX(7658)    SX(7660)
                          SX(7773)    SX(7775)    SX(7784)    SX(7786)
                          SX(7945)    SX(7947)    SX(7950)    SX(7954)
                          SX(7955)    SX(7976)    SX(8008)""",
                site_density=2.72e-09,
                phases="gas",
          reactions='surface1-*',
                initial_state=state(temperature=300.0, pressure=OneAtm))

#-------------------------------------------------------------------------------
# Element data
#-------------------------------------------------------------------------------

element(symbol=u'X', atomic_mass=195.083)
element(symbol=u'Ci', atomic_mass=13.003)
element(symbol=u'D', atomic_mass=2.014)
element(symbol=u'Oi', atomic_mass=18.0)
element(symbol=u'T', atomic_mass=3.016)
#-------------------------------------------------------------------------------
# Species data
#-------------------------------------------------------------------------------

species(name=u'n-heptane',
        atoms='H:16 C:7',
        thermo=(NASA([100.00, 1262.73],
                     [-2.91681405E-03,  7.69373649E-02, -3.48025563E-05,
                       1.86095180E-09,  2.01573617E-12, -2.57829342E+04,
                       3.00312148E+01]),
                NASA([1262.73, 5000.00],
                     [ 1.38377915E+01,  4.85945016E-02, -1.95474548E-05,
                       3.52837178E-09, -2.39064676E-13, -3.05141556E+04,
                      -4.48642836E+01])))

species(name=u'Ar',
        atoms='Ar:1',
        thermo=(NASA([200.00, 1000.00],
                     [ 2.50000000E+00,  0.00000000E+00,  0.00000000E+00,
                       0.00000000E+00,  0.00000000E+00, -7.45375000E+02,
                       4.37967000E+00]),
                NASA([1000.00, 6000.00],
                     [ 2.50000000E+00,  0.00000000E+00,  0.00000000E+00,
                       0.00000000E+00,  0.00000000E+00, -7.45375000E+02,
                       4.37967000E+00])))

species(name=u'He',
        atoms='He:1',
        thermo=(NASA([200.00, 1000.00],
                     [ 2.50000000E+00,  0.00000000E+00,  0.00000000E+00,
                       0.00000000E+00,  0.00000000E+00, -7.45375000E+02,
                       9.28724000E-01]),
                NASA([1000.00, 6000.00],
                     [ 2.50000000E+00,  0.00000000E+00,  0.00000000E+00,
                       0.00000000E+00,  0.00000000E+00, -7.45375000E+02,
                       9.28724000E-01])))

species(name=u'Ne',
        atoms='Ne:1',
        thermo=(NASA([200.00, 1000.00],
                     [ 2.50000000E+00,  0.00000000E+00,  0.00000000E+00,
                       0.00000000E+00,  0.00000000E+00, -7.45375000E+02,
                       3.35532000E+00]),
                NASA([1000.00, 6000.00],
                     [ 2.50000000E+00,  0.00000000E+00,  0.00000000E+00,
                       0.00000000E+00,  0.00000000E+00, -7.45375000E+02,
                       3.35532000E+00])))

species(name=u'N2',
        atoms='N:2',
        thermo=(NASA([200.00, 1000.00],
                     [ 3.53101000E+00, -1.23661000E-04, -5.02999000E-07,
                       2.43531000E-09, -1.40881000E-12, -1.04698000E+03,
                       2.96747000E+00]),
                NASA([1000.00, 6000.00],
                     [ 2.95258000E+00,  1.39690000E-03, -4.92632000E-07,
                       7.86010000E-11, -4.60755000E-15, -9.23949000E+02,
                       5.87189000E+00])))

species(name=u'C2H4(2)',
        atoms='H:4 C:2',
        thermo=(NASA([100.00, 979.36],
                     [ 3.97471606E+00, -4.75844285E-03,  4.16783770E-05,
                      -4.51392516E-08,  1.54224761E-11,  4.91540746E+03,
                       3.62430844E+00]),
                NASA([979.36, 5000.00],
                     [ 3.55660610E+00,  1.10627464E-02, -4.17019079E-06,
                       7.85586770E-10, -5.70060829E-14,  4.32046489E+03,
                       2.17719479E+00])))

species(name=u'C4H8-1(3)',
        atoms='H:8 C:4',
        thermo=(NASA([100.00, 1007.28],
                     [ 2.58772906E+00,  2.32777969E-02,  1.93412349E-05,
                      -3.55496333E-08,  1.36906009E-11, -1.91872926E+03,
                       1.45750618E+01]),
                NASA([1007.28, 5000.00],
                     [ 7.20517168E+00,  2.36361568E-02, -9.03150028E-06,
                       1.65392666E-09, -1.16019260E-13, -3.79733937E+03,
                      -1.24426257E+01])))

species(name=u'C4H8-2(4)',
        atoms='H:8 C:4',
        thermo=(NASA([100.00, 1157.79],
                     [ 2.51998327E+00,  2.76812799E-02,  9.43783469E-07,
                      -1.25009101E-08,  4.67144666E-12, -3.34374767E+03,
                       1.30195623E+01]),
                NASA([1157.79, 5000.00],
                     [ 6.04225708E+00,  2.60072350E-02, -1.04843374E-05,
                       1.90880922E-09, -1.30600505E-13, -4.86276511E+03,
                      -7.52715109E+00])))

species(name=u'C4H6(7)',
        atoms='H:6 C:4',
        thermo=(NASA([100.00, 946.05],
                     [ 2.80599310E+00,  1.02584471E-02,  6.17260255E-05,
                      -9.01642687E-08,  3.59116961E-11,  1.16584972E+04,
                       1.20621434E+01]),
                NASA([946.05, 5000.00],
                     [ 1.24693720E+01,  1.00553901E-02, -2.41206872E-06,
                       4.57077303E-10, -3.93160571E-14,  8.01077795E+03,
                      -4.36374720E+01])))

species(name=u'C6H8(9)',
        atoms='H:8 C:6',
        thermo=(NASA([100.00, 941.22],
                     [ 1.38427980E+00,  4.14411503E-02,  1.94287417E-05,
                      -6.16688700E-08,  2.86503633E-11,  1.76317461E+04,
                       1.93257509E+01]),
                NASA([941.22, 5000.00],
                     [ 1.69619680E+01,  1.57221707E-02, -4.10118367E-06,
                       6.95736344E-10, -5.26521484E-14,  1.29061672E+04,
                      -6.44097553E+01])))

species(name=u'C3H6(24)',
        atoms='H:6 C:3',
        thermo=(NASA([100.00, 983.75],
                     [ 3.31912102E+00,  8.17958674E-03,  3.34736123E-05,
                      -4.36193684E-08,  1.58213364E-11,  7.49325328E+02,
                       9.54025058E+00]),
                NASA([983.75, 5000.00],
                     [ 5.36755173E+00,  1.70743019E-02, -6.35107626E-06,
                       1.16619529E-09, -8.27620279E-14, -4.87138326E+02,
                      -4.54467529E+00])))

species(name=u'H2(47)',
        atoms='H:2',
        thermo=(NASA([100.00, 1959.08],
                     [ 3.43536412E+00,  2.12710353E-04, -2.78625043E-07,
                       3.40267167E-10, -7.76031998E-14, -1.03135984E+03,
                      -3.90841732E+00]),
                NASA([1959.08, 5000.00],
                     [ 2.78816583E+00,  5.87640942E-04,  1.59010417E-07,
                      -5.52739026E-11,  4.34310984E-15, -5.96144270E+02,
                       1.12732655E-01])))

species(name=u'C8H12(184)',
        atoms='H:12 C:8',
        thermo=(NASA([100.00, 1002.94],
                     [ 1.69489980E-02,  7.28189377E-02, -2.16585698E-05,
                      -2.40807783E-08,  1.44597041E-11,  1.38562447E+04,
                       3.07679077E+01]),
                NASA([1002.94, 5000.00],
                     [ 1.77276883E+01,  3.45993801E-02, -1.29781828E-05,
                       2.37500136E-09, -1.67643536E-13,  8.67334638E+03,
                      -6.28559377E+01])))

species(name=u'C8H12(333)',
        atoms='H:12 C:8',
        thermo=(NASA([100.00, 1016.52],
                     [-1.10429280E-01,  7.70814645E-02, -3.47833140E-05,
                      -1.00302869E-08,  9.42640217E-12,  1.21750142E+04,
                       2.97645889E+01]),
                NASA([1016.52, 5000.00],
                     [ 1.75623558E+01,  3.50022757E-02, -1.32158186E-05,
                       2.40320183E-09, -1.68059077E-13,  7.16317806E+03,
                      -6.27651255E+01])))

species(name=u'S(428)',
        atoms='H:14 C:10',
        thermo=(NASA([100.00, 988.70],
                     [-1.28102885E+00,  9.73401935E-02, -3.96908570E-05,
                      -2.28883979E-08,  1.70599250E-11,  2.01333918E+04,
                       3.80613736E+01]),
                NASA([988.70, 5000.00],
                     [ 2.35618068E+01,  3.86218834E-02, -1.40063814E-05,
                       2.54246809E-09, -1.80004061E-13,  1.31784885E+04,
                      -9.18377566E+01])))

species(name=u'C5H8c(451)',
        atoms='H:8 C:5',
        thermo=(NASA([100.00, 1004.86],
                     [ 1.98273955E+00,  3.49998332E-02,  6.98515281E-06,
                      -3.05031334E-08,  1.32246652E-11,  6.96521034E+03,
                       1.60818191E+01]),
                NASA([1004.86, 5000.00],
                     [ 1.01246420E+01,  2.42323877E-02, -9.24886971E-06,
                       1.70115950E-09, -1.20059732E-13,  4.23624320E+03,
                      -2.86745770E+01])))

species(name=u'S(479)',
        atoms='H:14 C:10',
        thermo=(NASA([100.00, 996.17],
                     [-1.40484009E+00,  1.01563983E-01, -5.26982344E-05,
                      -8.95924912E-09,  1.20629221E-11,  1.84520053E+04,
                       3.70450641E+01]),
                NASA([996.17, 5000.00],
                     [ 2.33617794E+01,  3.90818563E-02, -1.42761516E-05,
                       2.57812553E-09, -1.81029820E-13,  1.16835351E+04,
                      -9.15504001E+01])))

species(name=u'C6H10(559)',
        atoms='H:10 C:6',
        thermo=(NASA([100.00, 1036.89],
                     [ 1.50874221E+00,  4.27939676E-02,  1.00407781E-05,
                      -3.76644958E-08,  1.56320088E-11,  7.74480595E+03,
                       2.33493905E+01]),
                NASA([1036.89, 5000.00],
                     [ 1.16601041E+01,  3.10397815E-02, -1.26024374E-05,
                       2.38495409E-09, -1.70150727E-13,  4.16633351E+03,
                      -3.30972272E+01])))

species(name=u'C8H12(561)',
        atoms='H:12 C:8',
        thermo=(NASA([100.00, 1005.34],
                     [ 1.86706594E-01,  6.87128585E-02, -1.27834364E-05,
                      -3.12867866E-08,  1.65065107E-11,  1.40386710E+04,
                       3.13641644E+01]),
                NASA([1005.34, 5000.00],
                     [ 1.70020327E+01,  3.54850644E-02, -1.34528637E-05,
                       2.47700296E-09, -1.75378433E-13,  8.95581482E+03,
                      -5.83136097E+01])))

species(name=u'S(590)',
        atoms='H:18 C:12',
        thermo=(NASA([100.00, 1095.01],
                     [-2.74660311E+00,  1.29765084E-01, -8.38469326E-05,
                       1.76910140E-08,  2.07998997E-12,  1.63622171E+04,
                       4.84763299E+01]),
                NASA([1095.01, 5000.00],
                     [ 2.54000781E+01,  5.57453621E-02, -2.19004326E-05,
                       3.99438837E-09, -2.76438212E-13,  8.47151992E+03,
                      -9.77534119E+01])))

species(name=u'C7H12(753)',
        atoms='H:12 C:7',
        thermo=(NASA([100.00, 1072.04],
                     [ 7.34369533E-01,  6.01626595E-02, -1.25662011E-05,
                      -1.95620583E-08,  9.83589598E-12,  4.92869796E+03,
                       2.83182178E+01]),
                NASA([1072.04, 5000.00],
                     [ 1.28661532E+01,  3.85784978E-02, -1.55014561E-05,
                       2.86935600E-09, -2.00451385E-13,  9.66694499E+02,
                      -3.74015701E+01])))

species(name=u'C7H10(766)',
        atoms='H:10 C:7',
        thermo=(NASA([100.00, 960.58],
                     [ 5.40181259E-01,  6.14551349E-02, -1.12030877E-05,
                      -3.44223146E-08,  1.91302393E-11,  1.31395193E+04,
                       2.36489181E+01]),
                NASA([960.58, 5000.00],
                     [ 1.78943603E+01,  2.43013009E-02, -8.01425042E-06,
                       1.41741320E-09, -1.01048701E-13,  8.18561381E+03,
                      -6.78088657E+01])))

species(name=u'C7H12(802)',
        atoms='H:12 C:7',
        thermo=(NASA([100.00, 1131.99],
                     [ 5.84283501E-01,  6.47608593E-02, -2.67633524E-05,
                      -4.34737531E-09,  4.44182478E-12,  3.09569841E+03,
                       2.80653782E+01]),
                NASA([1131.99, 5000.00],
                     [ 1.29982914E+01,  3.85892124E-02, -1.55301333E-05,
                       2.84554471E-09, -1.96328801E-13, -8.48502352E+02,
                      -3.83715994E+01])))

species(name=u'C9H14(805)',
        atoms='H:14 C:9',
        thermo=(NASA([100.00, 1063.15],
                     [-8.82236922E-01,  9.34312223E-02, -5.41013563E-05,
                       5.02935019E-09,  4.39043850E-12,  9.36642700E+03,
                       3.45985261E+01]),
                NASA([1063.15, 5000.00],
                     [ 1.91979043E+01,  4.22928962E-02, -1.63922866E-05,
                       2.98082451E-09, -2.06555285E-13,  3.71720416E+03,
                      -6.99943779E+01])))

species(name=u'C9H14(806)',
        atoms='H:14 C:9',
        thermo=(NASA([100.00, 1474.55],
                     [-3.96703397E-01,  9.26979335E-02, -6.51821885E-05,
                       2.40631754E-08, -3.70865842E-12,  1.17488721E+04,
                       3.39094202E+01]),
                NASA([1474.55, 5000.00],
                     [ 1.59633830E+01,  4.83178968E-02, -2.00360104E-05,
                       3.65182184E-09, -2.48038618E-13,  6.92413657E+03,
                      -5.13719663E+01])))

species(name=u'C6H10(809)',
        atoms='H:10 C:6',
        thermo=(NASA([100.00, 1020.63],
                     [ 9.97427413E-01,  5.59777045E-02, -2.05880600E-05,
                      -1.17182304E-08,  8.13452041E-12,  6.30749855E+03,
                       2.38941836E+01]),
                NASA([1020.63, 5000.00],
                     [ 1.33828218E+01,  2.83661253E-02, -1.07663110E-05,
                       1.95749020E-09, -1.36589418E-13,  2.68926840E+03,
                      -4.14511818E+01])))

species(name=u'C6H10(810)',
        atoms='H:10 C:6',
        thermo=(NASA([100.00, 1020.63],
                     [ 9.97427413E-01,  5.59777045E-02, -2.05880600E-05,
                      -1.17182304E-08,  8.13452041E-12,  2.84333919E+03,
                       1.95659973E+01]),
                NASA([1020.63, 5000.00],
                     [ 1.33828218E+01,  2.83661253E-02, -1.07663110E-05,
                       1.95749020E-09, -1.36589418E-13, -7.74890955E+02,
                      -4.57793681E+01])))

species(name=u'C5H8g(839)',
        atoms='H:8 C:5',
        thermo=(NASA([100.00, 1049.25],
                     [ 2.01062155E+00,  3.15407187E-02,  2.07789480E-05,
                      -4.44088985E-08,  1.72419112E-11,  7.01383967E+03,
                       1.65768346E+01]),
                NASA([1049.25, 5000.00],
                     [ 1.14809937E+01,  2.45641673E-02, -1.08867259E-05,
                       2.16707025E-09, -1.59145781E-13,  3.42314914E+03,
                      -3.72078866E+01])))

species(name=u'CH4(1123)',
        atoms='H:4 C:1',
        thermo=(NASA([100.00, 1084.12],
                     [ 4.20541524E+00, -5.35557362E-03,  2.51123265E-05,
                      -2.13762843E-08,  5.97523937E-12, -1.01619433E+04,
                      -9.21279283E-01]),
                NASA([1084.12, 5000.00],
                     [ 9.08265721E-01,  1.14540858E-02, -4.57173828E-06,
                       8.29191671E-10, -5.66314895E-14, -9.71997444E+03,
                       1.39930944E+01])))

species(name=u'C4H8(1151)',
        atoms='H:8 C:4',
        thermo=(NASA([100.00, 1061.33],
                     [ 2.52504770E+00,  2.64752782E-02,  7.08359238E-06,
                      -2.07731462E-08,  8.00430055E-12, -4.02607130E+03,
                       1.28857274E+01]),
                NASA([1061.33, 5000.00],
                     [ 6.48672669E+00,  2.49943921E-02, -9.83283171E-06,
                       1.79343299E-09, -1.24008235E-13, -5.62452310E+03,
                      -1.00316397E+01])))

species(name=u'C2H6(1156)',
        atoms='H:6 C:2',
        thermo=(NASA([100.00, 1012.42],
                     [ 3.72239291E+00,  1.65083841E-03,  3.44175530E-05,
                      -3.76858229E-08,  1.24450657E-11, -1.15575901E+04,
                       4.68247999E+00]),
                NASA([1012.42, 5000.00],
                     [ 2.82848257E+00,  1.73040568E-02, -6.73334245E-06,
                       1.23742024E-09, -8.65676410E-14, -1.19978080E+04,
                       5.93811707E+00])))

species(name=u'S(1436)',
        atoms='H:18 C:12',
        thermo=(NASA([100.00, 1477.97],
                     [-3.19630903E+00,  1.37492248E-01, -1.07533491E-04,
                       4.32751920E-08, -6.98174862E-12,  1.46955257E+04,
                       4.93451940E+01]),
                NASA([1477.97, 5000.00],
                     [ 2.90787822E+01,  5.01436773E-02, -1.88841738E-05,
                       3.28877739E-09, -2.18103615E-13,  5.15506947E+03,
                      -1.18972809E+02])))

species(name=u'S(1439)',
        atoms='H:14 C:9',
        thermo=(NASA([100.00, 1127.97],
                     [-1.06224459E+00,  9.82688301E-02, -6.90079455E-05,
                       2.10351781E-08, -1.31458264E-12,  7.68752408E+03,
                       3.37868611E+01]),
                NASA([1127.97, 5000.00],
                     [ 1.95370073E+01,  4.18802743E-02, -1.61766395E-05,
                       2.90484030E-09, -1.98507333E-13,  1.98059854E+03,
                      -7.27712642E+01])))

species(name=u'S(1445)',
        atoms='H:12 C:7',
        thermo=(NASA([100.00, 1765.44],
                     [ 2.61835273E-01,  7.09654296E-02, -4.51295281E-05,
                       1.45180323E-08, -1.89455826E-12,  1.42372358E+03,
                       2.70943408E+01]),
                NASA([1765.44, 5000.00],
                     [ 1.73436976E+01,  3.22622835E-02, -1.22452290E-05,
                       2.10012569E-09, -1.36070052E-13, -4.60762115E+03,
                      -6.50249422E+01])))

species(name=u'S(1469)',
        atoms='H:16 C:10',
        thermo=(NASA([100.00, 1423.43],
                     [-9.64998750E-01,  1.06621285E-01, -7.62914575E-05,
                       2.89181323E-08, -4.60674413E-12,  8.90797740E+03,
                       3.81904336E+01]),
                NASA([1423.43, 5000.00],
                     [ 1.67121827E+01,  5.69463096E-02, -2.39442437E-05,
                       4.40115288E-09, -3.00767956E-13,  3.87554017E+03,
                      -5.33329903E+01])))

species(name=u'S(1482)',
        atoms='H:12 C:7',
        thermo=(NASA([100.00, 1597.77],
                     [ 6.07449968E-01,  7.06269883E-02, -4.57495732E-05,
                       1.53760740E-08, -2.15609505E-12,  2.06429398E+03,
                       2.53447288E+01]),
                NASA([1597.77, 5000.00],
                     [ 1.34412067E+01,  3.84975028E-02, -1.55858458E-05,
                       2.79019000E-09, -1.86786764E-13, -2.03674428E+03,
                      -4.25846163E+01])))

species(name=u'S(1544)',
        atoms='H:12 C:8',
        thermo=(NASA([100.00, 1018.55],
                     [ 6.01063084E-02,  7.29655393E-02, -2.58705028E-05,
                      -1.72899943E-08,  1.14983085E-11,  1.23574076E+04,
                       3.03580987E+01]),
                NASA([1018.55, 5000.00],
                     [ 1.68364676E+01,  3.58886254E-02, -1.36909925E-05,
                       2.50533844E-09, -1.75806316E-13,  7.44565539E+03,
                      -5.82216573E+01])))

species(name=u'S(1677)',
        atoms='H:16 C:10',
        thermo=(NASA([100.00, 1289.14],
                     [-8.93687957E-01,  1.08666914E-01, -8.19503125E-05,
                       3.37855656E-08, -5.94800249E-12,  7.06551798E+03,
                       3.64479621E+01]),
                NASA([1289.14, 5000.00],
                     [ 1.46119310E+01,  6.05555680E-02, -2.59697615E-05,
                       4.83584916E-09, -3.33869088E-13,  3.06772134E+03,
                      -4.22957851E+01])))

species(name=u'S(2154)',
        atoms='H:12 C:8',
        thermo=(NASA([100.00, 1018.55],
                     [ 6.01063084E-02,  7.29655393E-02, -2.58705028E-05,
                      -1.72899943E-08,  1.14983085E-11,  1.23574076E+04,
                       3.03580987E+01]),
                NASA([1018.55, 5000.00],
                     [ 1.68364676E+01,  3.58886254E-02, -1.36909925E-05,
                       2.50533844E-09, -1.75806316E-13,  7.44565539E+03,
                      -5.82216573E+01])))

species(name=u'S(2221)',
        atoms='H:16 C:10',
        thermo=(NASA([100.00, 1138.69],
                     [-1.69481903E+00,  1.10097565E-01, -7.41550260E-05,
                       2.05582177E-08, -6.65281706E-13,  6.53634594E+03,
                       3.97650424E+01]),
                NASA([1138.69, 5000.00],
                     [ 2.14208416E+01,  4.85617087E-02, -1.89986509E-05,
                       3.43258619E-09, -2.35214495E-13, -2.85786716E+00,
                      -8.03549591E+01])))

species(name=u'S(2247)',
        atoms='H:16 C:10',
        thermo=(NASA([100.00, 1453.18],
                     [-1.86468656E+00,  1.14862349E-01, -8.86053426E-05,
                       3.56213604E-08, -5.79860257E-12,  4.70425404E+03,
                       3.88941742E+01]),
                NASA([1453.18, 5000.00],
                     [ 2.30612638E+01,  4.62511546E-02, -1.77831293E-05,
                       3.13047883E-09, -2.08950654E-13, -2.54007990E+03,
                      -9.06751544E+01])))

species(name=u'S(2382)',
        atoms='H:14 C:9',
        thermo=(NASA([100.00, 1061.03],
                     [-7.05953494E-01,  8.92476594E-02, -4.49538104E-05,
                      -2.53008134E-09,  6.58740302E-12,  9.37244562E+03,
                       3.53274184E+01]),
                NASA([1061.03, 5000.00],
                     [ 1.84448643E+01,  4.32246707E-02, -1.68933500E-05,
                       3.08902389E-09, -2.14802098E-13,  3.83522066E+03,
                      -6.51415480E+01])))

species(name=u'S(2528)',
        atoms='H:14 C:9',
        thermo=(NASA([100.00, 1061.03],
                     [-7.05953494E-01,  8.92476594E-02, -4.49538104E-05,
                      -2.53008134E-09,  6.58740302E-12,  9.37244562E+03,
                       3.53274184E+01]),
                NASA([1061.03, 5000.00],
                     [ 1.84448643E+01,  4.32246707E-02, -1.68933500E-05,
                       3.08902389E-09, -2.14802098E-13,  3.83522066E+03,
                      -6.51415480E+01])))

species(name=u'S(2686)',
        atoms='H:18 C:12',
        thermo=(NASA([100.00, 1085.27],
                     [-2.55995993E+00,  1.25355517E-01, -7.38342977E-05,
                       8.97133831E-09,  4.75400473E-12,  1.65205814E+04,
                       4.98876451E+01]),
                NASA([1085.27, 5000.00],
                     [ 2.46396898E+01,  5.66083134E-02, -2.23575480E-05,
                       4.09704750E-09, -2.84583976E-13,  8.76155834E+03,
                      -9.21079824E+01])))

species(name=u'S(2692)',
        atoms='H:18 C:12',
        thermo=(NASA([100.00, 1149.22],
                     [-2.75441754E+00,  1.30448741E-01, -8.96236870E-05,
                       2.60418136E-08, -1.33906525E-12,  1.46895397E+04,
                       4.91026365E+01]),
                NASA([1149.22, 5000.00],
                     [ 2.51303828E+01,  5.60408250E-02, -2.20654283E-05,
                       3.99960024E-09, -2.74485478E-13,  6.78477350E+03,
                      -9.58107752E+01])))

species(name=u'S(3012)',
        atoms='H:14 C:9',
        thermo=(NASA([100.00, 1033.76],
                     [-5.65335332E-01,  8.47310838E-02, -3.08977113E-05,
                      -1.77732609E-08,  1.20851089E-11,  1.12058940E+04,
                       3.63093306E+01]),
                NASA([1033.76, 5000.00],