units(length='cm', time='s', quantity='mol', act_energy='kcal/mol')

ideal_gas(name='gas',
          elements="H D T C Ci O Oi N Ne Ar He Si S Cl X",
          species="""n-heptane   Ar          He          Ne
                     N2          C2H4(2)     C4H8-1(3)   C4H8-2(4)
                     C4H6(7)     C6H8(9)     C4H6a(56)   C6H10d(58)
                     C6H8(84)    C6H8(122)   C8H10(126)  C8H10(130)
                     C8H12(155)  C6H8(203)   S(719)      S(723)
                     S(815)      S(830)      S(843)      S(844)
                     C8H12(958)  S(962)      S(966)      S(1385)
                     S(1498)     S(1520)     S(1651)     S(2099)
                     S(2542)     S(2698)     S(2707)     S(3037)
                     S(3469)     S(3498)     S(3510)     S(3559)
                     S(3570)     S(3571)     S(3624)     S(3636)
                     S(4051)     S(4143)     S(4492)     S(4722)
                     S(4733)     S(4827)     S(4991)     S(5767)
                     S(5952)     S(6067)     S(6078)     S(6266)""",
          reactions='gas-*',
          initial_state=state(temperature=300.0, pressure=OneAtm))

ideal_interface(name='surface1',
                elements="H D T C Ci O Oi N Ne Ar He Si S Cl X",
                species="""X(1)        HX(5)       C2H3X(27)   C2H5X(30)
                          C4H7X(31)   C4H7X(32)   C4H7X(33)   C4H7X(34)
                          C2H2X(49)   C4H5X(53)   C4H5X(57)   C6H9X(65)
                          C6H9X(66)   C6H9X(72)   C8H13X(75)  C8H11X(78)
                          C6H9X(97)   C6H9X(118)  SX(124)     SX(125)
                          C6H9X(152)  SX(153)     C6H9X(180)  C6H9X(218)
                          SX(220)     SX(254)     C4H7X(277)  C6H9X(325)
                          SX(328)     SX(332)     C4H6X(407)  C6H9X(415)
                          SX(437)     SX(480)     SX(481)     SX(590)
                          SX(591)     SX(592)     SX(593)     SX(594)
                          SX(687)     SX(716)     SX(717)     SX(718)
                          C6H9X(741)  C6H9X(742)  SX(804)     SX(810)
                          SX(836)     SX(841)     SX(842)     SX(854)
                          SX(872)     SX(920)     SX(943)     SX(944)
                          SX(946)     C6H8X(953)  SX(954)     SX(960)
                          SX(961)     C6H9X(988)  C6H9X(989)  SX(1055)
                          SX(1058)    SX(1094)    SX(1127)    SX(1128)
                          SX(1130)    SX(1218)    SX(1220)    SX(1226)
                          SX(1339)    SX(1365)    SX(1366)    SX(1367)
                          SX(1377)    SX(1410)    SX(1411)    SX(1412)
                          SX(1413)    SX(1435)    SX(1444)    SX(1481)
                          SX(1490)    SX(1501)    SX(1556)    SX(1557)
                          SX(1558)    SX(1559)    SX(1561)    SX(1562)
                          SX(1563)    SX(1565)    SX(1593)    SX(1677)
                          SX(1678)    SX(1783)    SX(1802)    SX(1803)
                          SX(1804)    SX(1805)    SX(1831)    SX(1871)
                          SX(1872)    SX(1873)    SX(1874)    SX(1875)
                          SX(1892)    SX(1949)    SX(1950)    SX(1951)
                          SX(1952)    SX(1953)    SX(1954)    SX(1955)
                          SX(2100)    SX(2163)    SX(2192)    SX(2193)
                          SX(2194)    SX(2195)    SX(2196)    SX(2197)
                          SX(2419)    SX(2420)    SX(2421)    SX(2422)
                          SX(2423)    SX(2424)    SX(2523)    SX(2580)
                          SX(2581)    SX(2582)    SX(2583)    SX(2587)
                          SX(2687)    SX(2701)    SX(2736)    SX(2737)
                          SX(2738)    SX(2739)    SX(2740)    SX(2741)
                          SX(2766)    SX(2789)    SX(2836)    SX(2837)
                          SX(2838)    SX(2839)    SX(2906)    SX(2940)
                          SX(2941)    SX(2942)    SX(2943)    SX(2944)
                          SX(2982)    SX(3005)    SX(3006)    SX(3007)
                          SX(3029)    SX(3030)    SX(3033)    SX(3117)
                          SX(3141)    SX(3142)    SX(3143)    SX(3144)
                          SX(3189)    SX(3253)    SX(3255)    SX(3299)
                          SX(3343)    SX(3363)    SX(3416)    SX(3501)
                          SX(3537)    SX(3538)    SX(3539)    SX(3540)
                          SX(3541)    SX(3561)    SX(3600)    SX(3601)
                          SX(3602)    SX(3603)    SX(3604)    SX(3605)
                          SX(3621)    SX(3623)    SX(3654)    SX(3705)
                          SX(3733)    SX(3734)    SX(3745)    SX(3752)
                          SX(3810)    SX(3818)    SX(3948)    SX(3949)
                          SX(3950)    SX(3951)    SX(3952)    SX(4103)
                          SX(4140)    SX(4142)    SX(4295)    SX(4349)
                          SX(4350)    SX(4351)    SX(4352)    SX(4424)
                          SX(4425)    SX(4443)    SX(4494)    SX(4544)
                          SX(4545)    SX(4546)    SX(4547)    SX(4548)
                          SX(4549)    SX(4566)    SX(4587)    SX(4588)
                          SX(4589)    SX(4592)    SX(4656)    SX(4664)
                          SX(4725)    SX(4729)    SX(4820)    SX(4821)
                          SX(4822)    SX(4879)    SX(4936)    SX(4955)
                          SX(4956)    SX(4996)    SX(5023)    SX(5052)
                          SX(5069)    SX(5070)    SX(5115)    SX(5147)
                          SX(5176)    SX(5201)    SX(5228)    SX(5246)
                          SX(5313)    SX(5759)    SX(5763)    SX(5916)
                          SX(5943)    SX(5946)    SX(5947)    SX(6016)
                          SX(6354)    SX(6386)    SX(6415)""",
                site_density=2.72e-09,
                phases="gas",
          reactions='surface1-*',
                initial_state=state(temperature=300.0, pressure=OneAtm))

#-------------------------------------------------------------------------------
# Element data
#-------------------------------------------------------------------------------

element(symbol=u'X', atomic_mass=195.083)
element(symbol=u'Ci', atomic_mass=13.003)
element(symbol=u'D', atomic_mass=2.014)
element(symbol=u'Oi', atomic_mass=18.0)
element(symbol=u'T', atomic_mass=3.016)
#-------------------------------------------------------------------------------
# Species data
#-------------------------------------------------------------------------------

species(name=u'n-heptane',
        atoms='H:16 C:7',
        thermo=(NASA([100.00, 1262.73],
                     [-2.91681405E-03,  7.69373649E-02, -3.48025563E-05,
                       1.86095180E-09,  2.01573617E-12, -2.57829342E+04,
                       3.00312148E+01]),
                NASA([1262.73, 5000.00],
                     [ 1.38377915E+01,  4.85945016E-02, -1.95474548E-05,
                       3.52837178E-09, -2.39064676E-13, -3.05141556E+04,
                      -4.48642836E+01])))

species(name=u'Ar',
        atoms='Ar:1',
        thermo=(NASA([200.00, 1000.00],
                     [ 2.50000000E+00,  0.00000000E+00,  0.00000000E+00,
                       0.00000000E+00,  0.00000000E+00, -7.45375000E+02,
                       4.37967000E+00]),
                NASA([1000.00, 6000.00],
                     [ 2.50000000E+00,  0.00000000E+00,  0.00000000E+00,
                       0.00000000E+00,  0.00000000E+00, -7.45375000E+02,
                       4.37967000E+00])))

species(name=u'He',
        atoms='He:1',
        thermo=(NASA([200.00, 1000.00],
                     [ 2.50000000E+00,  0.00000000E+00,  0.00000000E+00,
                       0.00000000E+00,  0.00000000E+00, -7.45375000E+02,
                       9.28724000E-01]),
                NASA([1000.00, 6000.00],
                     [ 2.50000000E+00,  0.00000000E+00,  0.00000000E+00,
                       0.00000000E+00,  0.00000000E+00, -7.45375000E+02,
                       9.28724000E-01])))

species(name=u'Ne',
        atoms='Ne:1',
        thermo=(NASA([200.00, 1000.00],
                     [ 2.50000000E+00,  0.00000000E+00,  0.00000000E+00,
                       0.00000000E+00,  0.00000000E+00, -7.45375000E+02,
                       3.35532000E+00]),
                NASA([1000.00, 6000.00],
                     [ 2.50000000E+00,  0.00000000E+00,  0.00000000E+00,
                       0.00000000E+00,  0.00000000E+00, -7.45375000E+02,
                       3.35532000E+00])))

species(name=u'N2',
        atoms='N:2',
        thermo=(NASA([200.00, 1000.00],
                     [ 3.53101000E+00, -1.23661000E-04, -5.02999000E-07,
                       2.43531000E-09, -1.40881000E-12, -1.04698000E+03,
                       2.96747000E+00]),
                NASA([1000.00, 6000.00],
                     [ 2.95258000E+00,  1.39690000E-03, -4.92632000E-07,
                       7.86010000E-11, -4.60755000E-15, -9.23949000E+02,
                       5.87189000E+00])))

species(name=u'C2H4(2)',
        atoms='H:4 C:2',
        thermo=(NASA([100.00, 979.36],
                     [ 3.97471606E+00, -4.75844285E-03,  4.16783770E-05,
                      -4.51392516E-08,  1.54224761E-11,  4.91540746E+03,
                       3.62430844E+00]),
                NASA([979.36, 5000.00],
                     [ 3.55660610E+00,  1.10627464E-02, -4.17019079E-06,
                       7.85586770E-10, -5.70060829E-14,  4.32046489E+03,
                       2.17719479E+00])))

species(name=u'C4H8-1(3)',
        atoms='H:8 C:4',
        thermo=(NASA([100.00, 1007.28],
                     [ 2.58772906E+00,  2.32777969E-02,  1.93412349E-05,
                      -3.55496333E-08,  1.36906009E-11, -1.91872926E+03,
                       1.45750618E+01]),
                NASA([1007.28, 5000.00],
                     [ 7.20517168E+00,  2.36361568E-02, -9.03150028E-06,
                       1.65392666E-09, -1.16019260E-13, -3.79733937E+03,
                      -1.24426257E+01])))

species(name=u'C4H8-2(4)',
        atoms='H:8 C:4',
        thermo=(NASA([100.00, 1157.79],
                     [ 2.51998327E+00,  2.76812799E-02,  9.43783469E-07,
                      -1.25009101E-08,  4.67144666E-12, -3.34374767E+03,
                       1.30195623E+01]),
                NASA([1157.79, 5000.00],
                     [ 6.04225708E+00,  2.60072350E-02, -1.04843374E-05,
                       1.90880922E-09, -1.30600505E-13, -4.86276511E+03,
                      -7.52715109E+00])))

species(name=u'C4H6(7)',
        atoms='H:6 C:4',
        thermo=(NASA([100.00, 946.05],
                     [ 2.80599310E+00,  1.02584471E-02,  6.17260255E-05,
                      -9.01642687E-08,  3.59116961E-11,  1.16584972E+04,
                       1.20621434E+01]),
                NASA([946.05, 5000.00],
                     [ 1.24693720E+01,  1.00553901E-02, -2.41206872E-06,
                       4.57077303E-10, -3.93160571E-14,  8.01077795E+03,
                      -4.36374720E+01])))

species(name=u'C6H8(9)',
        atoms='H:8 C:6',
        thermo=(NASA([100.00, 941.22],
                     [ 1.38427980E+00,  4.14411503E-02,  1.94287417E-05,
                      -6.16688700E-08,  2.86503633E-11,  1.76317461E+04,
                       1.93257509E+01]),
                NASA([941.22, 5000.00],
                     [ 1.69619680E+01,  1.57221707E-02, -4.10118367E-06,
                       6.95736344E-10, -5.26521484E-14,  1.29061672E+04,
                      -6.44097553E+01])))

species(name=u'C4H6a(56)',
        atoms='H:6 C:4',
        thermo=(NASA([100.00, 950.38],
                     [ 3.41327601E+00, -4.60830638E-03,  9.57205603E-05,
                      -1.18800574E-07,  4.44495312E-11,  1.74039828E+04,
                       1.01517556E+01]),
                NASA([950.38, 5000.00],
                     [ 9.72156091E+00,  1.36879055E-02, -3.93842260E-06,
                       7.58710118E-10, -6.16013131E-14,  1.41795804E+04,
                      -3.06164436E+01])))

species(name=u'C6H10d(58)',
        atoms='H:10 C:6',
        thermo=(NASA([100.00, 969.70],
                     [ 2.39493639E+00,  1.31308716E-02,  1.02019898E-04,
                      -1.35266841E-07,  5.06735576E-11, -2.55363631E+03,
                       1.63461006E+01]),
                NASA([969.70, 5000.00],
                     [ 1.20193596E+01,  2.96991246E-02, -1.06504175E-05,
                       2.03502649E-09, -1.52378829E-13, -7.06570658E+03,
                      -4.34309725E+01])))

species(name=u'C6H8(84)',
        atoms='H:8 C:6',
        thermo=(NASA([100.00, 982.45],
                     [ 2.05482741E+00,  2.86394809E-02,  3.83671565E-05,
                      -6.66308438E-08,  2.64365037E-11,  2.60818009E+04,
                       1.79213926E+01]),
                NASA([982.45, 5000.00],
                     [ 1.14504006E+01,  2.51395054E-02, -9.35048470E-06,
                       1.75511598E-09, -1.27609536E-13,  2.25584277E+04,
                      -3.57764240E+01])))

species(name=u'C6H8(122)',
        atoms='H:8 C:6',
        thermo=(NASA([100.00, 972.94],
                     [ 1.82686070E+00,  3.47046353E-02,  2.41070171E-05,
                      -5.44847920E-08,  2.29388832E-11,  1.99100661E+04,
                       1.81393315E+01]),
                NASA([972.94, 5000.00],
                     [ 1.21686202E+01,  2.40472785E-02, -8.58151834E-06,
                       1.57034031E-09, -1.12795334E-13,  1.63897115E+04,
                      -3.92195169E+01])))

species(name=u'C8H10(126)',
        atoms='H:10 C:8',
        thermo=(NASA([100.00, 966.00],
                     [ 5.26364552E-01,  5.92493286E-02,  6.02658334E-06,
                      -5.32875938E-08,  2.55662369E-11,  2.61873255E+04,
                       2.61353490E+01]),
                NASA([966.00, 5000.00],
                     [ 1.80461436E+01,  2.79985777E-02, -9.56971683E-06,
                       1.72854036E-09, -1.24398543E-13,  2.08757672E+04,
                      -6.77541641E+01])))

species(name=u'C8H10(130)',
        atoms='H:10 C:8',
        thermo=(NASA([100.00, 1006.91],
                     [ 9.59099136E-01,  5.26052795E-02,  1.05118295E-05,
                      -4.60808495E-08,  1.99632153E-11,  2.84660811E+04,
                       2.42924801E+01]),
                NASA([1006.91, 5000.00],
                     [ 1.34171277E+01,  3.60526403E-02, -1.38971709E-05,
                       2.56761905E-09, -1.81631637E-13,  2.42875578E+04,
                      -4.41873377E+01])))

species(name=u'C8H12(155)',
        atoms='H:12 C:8',
        thermo=(NASA([100.00, 1066.82],
                     [-6.90279206E-02,  7.77631354E-02, -4.25469002E-05,
                       2.07979121E-09,  4.19202863E-12,  1.30198536E+04,
                       2.96530167E+01]),
                NASA([1066.82, 5000.00],
                     [ 1.62725496E+01,  3.71185641E-02, -1.44020029E-05,
                       2.61623348E-09, -1.80996976E-13,  8.35933475E+03,
                      -5.57441245E+01])))

species(name=u'C6H8(203)',
        atoms='H:8 C:6',
        thermo=(NASA([100.00, 946.19],
                     [ 1.92826121E+00,  2.51788745E-02,  6.41517356E-05,
                      -1.05146160E-07,  4.31423785E-11,  2.35071327E+04,
                       1.81663596E+01]),
                NASA([946.19, 5000.00],
                     [ 1.60541419E+01,  1.69922214E-02, -4.56153081E-06,
                       8.26448548E-10, -6.55233208E-14,  1.85273044E+04,
                      -6.13908341E+01])))

species(name=u'S(719)',
        atoms='H:14 C:10',
        thermo=(NASA([100.00, 1013.88],
                     [-1.03527521E+00,  8.99214218E-02, -2.04491278E-05,
                      -3.87098816E-08,  2.10701742E-11,  2.19500184E+04,
                       3.75590118E+01]),
                NASA([1013.88, 5000.00],
                     [ 2.29265009E+01,  4.12101070E-02, -1.61763087E-05,
                       3.05734712E-09, -2.20216432E-13,  1.47358972E+04,
                      -8.99879804E+01])))

species(name=u'S(723)',
        atoms='H:14 C:10',
        thermo=(NASA([100.00, 1012.53],
                     [-1.20605840E+00,  9.40401291E-02, -2.93709084E-05,
                      -3.14398490E-08,  1.89945163E-11,  2.17676358E+04,
                       3.69663981E+01]),
                NASA([1012.53, 5000.00],
                     [ 2.36543438E+01,  4.03205348E-02, -1.56993177E-05,
                       2.95478832E-09, -2.12434612E-13,  1.44525644E+04,
                      -9.45425192E+01])))

species(name=u'S(815)',
        atoms='H:14 C:10',
        thermo=(NASA([100.00, 1160.87],
                     [-1.01015775E+00,  9.64221881E-02, -5.82621494E-05,
                       1.24156524E-08,  7.64227212E-13,  2.15791627E+04,
                       3.60761300E+01]),
                NASA([1160.87, 5000.00],
                     [ 1.85105543E+01,  4.75366078E-02, -1.88404984E-05,
                       3.41278515E-09, -2.33582160E-13,  1.58087073E+04,
                      -6.63452014E+01])))

species(name=u'S(830)',
        atoms='H:18 C:12',
        thermo=(NASA([100.00, 1665.44],
                     [-2.84501015E+00,  1.29731503E-01, -9.13498702E-05,
                       3.20814908E-08, -4.51786739E-12,  1.73548388E+04,
                       4.85206713E+01]),
                NASA([1665.44, 5000.00],
                     [ 3.00972418E+01,  5.06114866E-02, -2.00890651E-05,
                       3.55603708E-09, -2.35877241E-13,  6.38222268E+03,
                      -1.27209986E+02])))

species(name=u'S(843)',
        atoms='H:16 C:12',
        thermo=(NASA([100.00, 1000.07],
                     [-2.50676216E+00,  1.18597942E-01, -4.75531505E-05,
                      -3.00184670E-08,  2.14807377E-11,  2.80448969E+04,
                       4.49625099E+01]),
                NASA([1000.07, 5000.00],
                     [ 2.94792849E+01,  4.43568405E-02, -1.67347440E-05,
                       3.12383744E-09, -2.24918664E-13,  1.89621537E+04,
                      -1.22778398E+02])))

species(name=u'S(844)',
        atoms='H:16 C:12',
        thermo=(NASA([100.00, 998.42],
                     [-2.67611497E+00,  1.22698915E-01, -5.64088079E-05,
                      -2.28401427E-08,  1.94468519E-11,  2.78624534E+04,
                       4.36716757E+01]),
                NASA([998.42, 5000.00],
                     [ 3.02046526E+01,  4.34717644E-02, -1.62604618E-05,
                       3.02193821E-09, -2.17192763E-13,  1.86797676E+04,
                      -1.28012326E+02])))

species(name=u'C8H12(958)',
        atoms='H:12 C:8',
        thermo=(NASA([100.00, 1520.46],
                     [ 3.33256816E-01,  7.70233903E-02, -5.19909225E-05,
                       1.84125603E-08, -2.72977416E-12,  1.52768255E+04,
                       2.88681811E+01]),
                NASA([1520.46, 5000.00],
                     [ 1.38154091E+01,  4.15547541E-02, -1.69995468E-05,
                       3.07009936E-09, -2.07104980E-13,  1.11770134E+04,
                      -4.18245982E+01])))

species(name=u'S(962)',
        atoms='H:14 C:10',
        thermo=(NASA([100.00, 1430.48],
                     [-1.24876051E+00,  1.04742847E-01, -8.05829786E-05,
                       3.25316409E-08, -5.35210905E-12,  2.15667289E+04,
                       3.78850720E+01]),
                NASA([1430.48, 5000.00],
                     [ 2.02897438E+01,  4.45148457E-02, -1.74272667E-05,
                       3.09797885E-09, -2.08034790E-13,  1.54047159E+04,
                      -7.37365280E+01])))

species(name=u'S(966)',
        atoms='H:14 C:10',
        thermo=(NASA([100.00, 1365.45],
                     [-1.34992437E+00,  1.08098474E-01, -8.71089359E-05,
                       3.70790490E-08, -6.42554961E-12,  2.13812447E+04,
                       3.70388900E+01]),
                NASA([1365.45, 5000.00],
                     [ 2.02493179E+01,  4.48246216E-02, -1.75998923E-05,
                       3.14186311E-09, -2.11973682E-13,  1.54827291E+04,
                      -7.38927093E+01])))

species(name=u'S(1385)',
        atoms='H:14 C:10',
        thermo=(NASA([100.00, 979.13],
                     [-1.61786644E+00,  1.06166096E-01, -6.04080465E-05,
                      -5.41801887E-09,  1.20423333E-11,  1.49251320E+04,
                       3.39372406E+01]),
                NASA([979.13, 5000.00],
                     [ 2.48037279E+01,  3.66649106E-02, -1.28202507E-05,
                       2.27494797E-09, -1.59205363E-13,  7.90859579E+03,
                      -1.02383319E+02])))

species(name=u'S(1498)',
        atoms='H:12 C:8',
        thermo=(NASA([100.00, 1093.32],
                     [ 2.36637697E-01,  7.13806073E-02, -3.04205239E-05,
                      -5.26761999E-09,  5.54497945E-12,  1.11111992E+04,
                       2.69517569E+01]),
                NASA([1093.32, 5000.00],
                     [ 1.41535962E+01,  4.07049724E-02, -1.61040105E-05,
                       2.93544374E-09, -2.02595338E-13,  6.85832312E+03,
                      -4.69635767E+01])))

species(name=u'S(1520)',
        atoms='H:12 C:8',
        thermo=(NASA([100.00, 1093.32],
                     [ 2.36638241E-01,  7.13806010E-02, -3.04205030E-05,
                      -5.26764556E-09,  5.54498963E-12,  1.09350726E+04,
                       2.64146056E+01]),
                NASA([1093.32, 5000.00],
                     [ 1.41535930E+01,  4.07049777E-02, -1.61040135E-05,
                       2.93544444E-09, -2.02595395E-13,  6.68219791E+03,
                      -4.75007076E+01])))

species(name=u'S(1651)',
        atoms='H:12 C:8',
        thermo=(NASA([100.00, 996.08],
                     [-1.55054420E-01,  7.76017702E-02, -3.37454095E-05,
                      -1.34614252E-08,  1.13198940E-11,  8.83061944E+03,
                       2.79505218E+01]),
                NASA([996.08, 5000.00],
                     [ 1.82444884E+01,  3.35255263E-02, -1.22645795E-05,
                       2.20885887E-09, -1.54520851E-13,  3.68623383E+03,
                      -6.81680129E+01])))

species(name=u'S(2099)',
        atoms='H:12 C:8',
        thermo=(NASA([100.00, 996.08],
                     [-1.55054420E-01,  7.76017702E-02, -3.37454095E-05,
                      -1.34614252E-08,  1.13198940E-11,  8.83061944E+03,
                       2.79505218E+01]),
                NASA([996.08, 5000.00],
                     [ 1.82444884E+01,  3.35255263E-02, -1.22645795E-05,
                       2.20885887E-09, -1.54520851E-13,  3.68623383E+03,
                      -6.81680129E+01])))

species(name=u'S(2542)',
        atoms='H:12 C:8',
        thermo=(NASA([100.00, 1018.55],
                     [ 6.01063084E-02,  7.29655393E-02, -2.58705028E-05,
                      -1.72899943E-08,  1.14983085E-11,  1.25335342E+04,
                       3.02021008E+01]),
                NASA([1018.55, 5000.00],
                     [ 1.68364676E+01,  3.58886254E-02, -1.36909925E-05,
                       2.50533844E-09, -1.75806316E-13,  7.62178202E+03,
                      -5.83776552E+01])))

species(name=u'S(2698)',
        atoms='H:14 C:10',
        thermo=(NASA([100.00, 996.17],
                     [-1.40484009E+00,  1.01563983E-01, -5.26982344E-05,
                      -8.95924912E-09,  1.20629221E-11,  1.86281319E+04,
                       3.68890663E+01]),
                NASA([996.17, 5000.00],
                     [ 2.33617794E+01,  3.90818563E-02, -1.42761516E-05,
                       2.57812553E-09, -1.81029820E-13,  1.18596618E+04,
                      -9.17063980E+01])))

species(name=u'S(2707)',
        atoms='H:14 C:10',
        thermo=(NASA([100.00, 1040.81],
                     [-1.05073492E+00,  9.58137999E-02, -4.83306648E-05,
                      -3.94501074E-09,  7.95633346E-12,  1.73878508E+04,
                       3.42048466E+01]),
                NASA([1040.81, 5000.00],
                     [ 1.97249915E+01,  4.51480836E-02, -1.73642287E-05,
                       3.15592695E-09, -2.19242889E-13,  1.14826995E+04,
                      -7.44493924E+01])))

species(name=u'S(3037)',
        atoms='H:16 C:10',
        thermo=(NASA([100.00, 1137.21],
                     [-1.39512879E+00,  1.02007951E-01, -5.24031564E-05,
                       1.24503760E-09,  4.93721364E-12,  8.17455261E+03,
                       3.92275140E+01]),
                NASA([1137.21, 5000.00],
                     [ 2.07766669E+01,  5.11854141E-02, -2.11971422E-05,
                       3.95557339E-09, -2.76182462E-13,  1.37525526E+03,
                      -7.83122207E+01])))

species(name=u'S(3469)',
        atoms='H:14 C:10',
        thermo=(NASA([100.00, 1066.04],
                     [-8.36866511E-01,  9.11734277E-02, -4.03442446E-05,
                      -8.06847868E-09,  8.32995016E-12,  2.10908405E+04,
                       3.64622873E+01]),
                NASA([1066.04, 5000.00],
                     [ 1.84323227E+01,  4.73275223E-02, -1.86897690E-05,
                       3.42943587E-09, -2.38675945E-13,  1.53655751E+04,
                      -6.53164858E+01])))

species(name=u'S(3498)',
        atoms='H:14 C:10',
        thermo=(NASA([100.00, 1040.81],
                     [-1.05073492E+00,  9.58137999E-02, -4.83306648E-05,
                      -3.94501074E-09,  7.95633346E-12,  1.73878508E+04,
                       3.42048466E+01]),
                NASA([1040.81, 5000.00],
                     [ 1.97249915E+01,  4.51480836E-02, -1.73642287E-05,
                       3.15592695E-09, -2.19242889E-13,  1.14826995E+04,
                      -7.44493924E+01])))

species(name=u'S(3510)',
        atoms='H:14 C:10',
        thermo=(NASA([100.00, 1040.81],
                     [-1.05073492E+00,  9.58137999E-02, -4.83306648E-05,
                      -3.94501074E-09,  7.95633346E-12,  1.72117241E+04,
                       3.43608445E+01]),
                NASA([1040.81, 5000.00],
                     [ 1.97249915E+01,  4.51480836E-02, -1.73642287E-05,
                       3.15592695E-09, -2.19242889E-13,  1.13065729E+04,
                      -7.42933945E+01])))

species(name=u'S(3559)',
        atoms='H:14 C:10',
        thermo=(NASA([100.00, 1040.58],
                     [-1.22374881E+00,  9.99594398E-02, -5.73493132E-05,
                       3.45398686E-09,  5.82439019E-12,  1.72055638E+04,
                       3.36201901E+01]),
                NASA([1040.58, 5000.00],
                     [ 2.04597878E+01,  4.42465469E-02, -1.68802830E-05,
                       3.05171623E-09, -2.11323506E-13,  1.11964901E+04,
                      -7.90429949E+01])))

species(name=u'S(3570)',
        atoms='H:14 C:10',
        thermo=(NASA([100.00, 1183.52],
                     [-6.91205304E-01,  8.98681014E-02, -4.54719087E-05,
                       4.12813802E-09,  2.54623219E-12,  1.94938354E+04,
                       3.34842662E+01]),
                NASA([1183.52, 5000.00],
                     [ 1.64682689E+01,  5.10146007E-02, -2.04885914E-05,
                       3.72069234E-09, -2.54329875E-13,  1.40915547E+04,
                      -5.78550120E+01])))

species(name=u'S(3571)',
        atoms='H:14 C:10',
        thermo=(NASA([100.00, 1183.51],
                     [-6.91190383E-01,  8.98679366E-02, -4.54713854E-05,
                       4.12753555E-09,  2.54645681E-12,  1.96699614E+04,
                       3.33282141E+01]),
                NASA([1183.51, 5000.00],
                     [ 1.64681432E+01,  5.10148011E-02, -2.04887017E-05,
                       3.72071750E-09, -2.54331907E-13,  1.42677387E+04,
                      -5.80102936E+01])))

species(name=u'S(3624)',
        atoms='H:18 C:12',
        thermo=(NASA([100.00, 1058.60],
                     [-2.42868392E+00,  1.17198695E-01, -4.02026884E-05,
                      -2.87280965E-08,  1.78601486E-11,  1.76718949E+04,
                       4.52814974E+01]),
                NASA([1058.60, 5000.00],
                     [ 2.66859150E+01,  5.62558865E-02, -2.33783546E-05,
                       4.46404224E-09, -3.19518816E-13,  8.75836143E+03,
                      -1.09823640E+02])))

species(name=u'S(3636)',
        atoms='H:14 C:10',
        thermo=(NASA([100.00, 1500.88],
                     [-8.01023828E-01,  1.01604831E-01, -7.32405145E-05,
                       2.69756149E-08, -4.10194060E-12,  2.22126768E+04,
                       3.39666889E+01]),
                NASA([1500.88, 5000.00],
                     [ 1.86233936E+01,  4.98370114E-02, -2.15033042E-05,
                       3.99489515E-09, -2.74085308E-13,  1.63819039E+04,
                      -6.76323090E+01])))

species(name=u'S(4051)',
        atoms='H:12 C:8',
        thermo=(NASA([100.00, 1093.32],
                     [ 2.36638241E-01,  7.13806010E-02, -3.04205030E-05,
                      -5.26764556E-09,  5.54498963E-12,  1.09350726E+04,
                       2.71077528E+01]),
                NASA([1093.32, 5000.00],
                     [ 1.41535930E+01,  4.07049777E-02, -1.61040135E-05,
                       2.93544444E-09, -2.02595395E-13,  6.68219791E+03,
                      -4.68075604E+01])))

species(name=u'S(4143)',
        atoms='H:18 C:12',
        thermo=(NASA([100.00, 1119.96],
                     [-2.67029062E+00,  1.27049755E-01, -7.61744514E-05,
                       1.14581148E-08,  3.55066475E-12,  1.31531642E+04,
                       4.58437170E+01]),
                NASA([1119.96, 5000.00],
                     [ 2.55741964E+01,  5.68003948E-02, -2.31071966E-05,
                       4.28676826E-09, -2.99012778E-13,  4.90579955E+03,
                      -1.02194902E+02])))

species(name=u'S(4492)',
        atoms='H:14 C:10',