units(length='cm', time='s', quantity='mol', act_energy='kcal/mol')

ideal_gas(name='gas',
          elements="H D T C Ci O Oi N Ne Ar He Si S Cl X",
          species="""n-heptane   Ar          He          Ne
                     N2          C2H4(2)     C4H8-1(3)   C4H8-2(4)
                     C4H6(7)     C6H8(9)     C3H6(24)    H2(47)
                     C6H10(183)  C8H12(184)  C5H8c(257)  C8H12(484)
                     C8H12(512)  C2H6(803)   C8H14(821)  C8H14(822)
                     C8H14(824)  C8H14(825)  C8H14(827)  CH4(830)
                     C7H12(861)  C3H8(869)   S(1139)     S(1142)
                     C4H8(1243)  S(2530)     S(3613)     S(3712)
                     S(3741)     S(3844)     S(4738)     S(5135)
                     S(5188)     S(6293)     S(6436)     S(6684)
                     S(6825)     S(6994)     S(7588)""",
          reactions='gas-*',
          initial_state=state(temperature=300.0, pressure=OneAtm))

ideal_interface(name='surface1',
                elements="H D T C Ci O Oi N Ne Ar He Si S Cl X",
                species="""X(1)        HX(5)       C2H3X(27)   allylX(28)
                          CH3X(29)    C2H5X(30)   C4H7X(31)   C4H7X(32)
                          C4H7X(33)   C4H7X(34)   C3H5X(35)   C4H7X(36)
                          C4H7X(37)   C4H5X(56)   C4H5X(57)   C6H9X(66)
                          C8H13X(74)  C8H13X(75)  C6H9X(80)   C8H11X(85)
                          C8H11X(86)  C6H7X(94)   C6H7X(95)   C6H7X(96)
                          C6H9X(107)  SX(145)     C6H7X(159)  C6H9X(175)
                          C5H7X(177)  SX(202)     SX(204)     SX(207)
                          C6H9X(262)  C6H9X(263)  C6H9X(264)  SX(280)
                          SX(281)     SX(282)     SX(283)     C6H9X(340)
                          C6H9X(368)  C6H9X(369)  C6H9X(370)  C6H9X(444)
                          C3H5X(446)  SX(449)     C4H7X(479)  SX(508)
                          SX(535)     C6H9X(564)  C6H9X(565)  C6H9X(598)
                          SX(599)     SX(602)     SX(631)     C6H9X(693)
                          SX(695)     C6H9X(729)  SX(805)     C3H7X(831)
                          SX(839)     SX(840)     C5H7X(870)  C5H7X(906)
                          C5H7X(950)  C5H7X(951)  C5H7X(952)  SX(1119)
                          SX(1129)    SX(1130)    SX(1131)    SX(1132)
                          SX(1286)    SX(1298)    SX(1347)    SX(1459)
                          SX(1530)    SX(1591)    SX(1592)    SX(1616)
                          SX(1664)    SX(2020)    SX(2056)    SX(2057)
                          SX(2058)    SX(2059)    SX(2060)    SX(2080)
                          SX(2081)    SX(2109)    SX(2110)    SX(2202)
                          SX(2203)    SX(2254)    SX(2255)    SX(2264)
                          SX(2314)    SX(2333)    SX(2350)    SX(2374)
                          SX(2400)    SX(2401)    SX(2437)    SX(2486)
                          SX(2487)    SX(2497)    SX(2554)    SX(2555)
                          SX(2583)    SX(2592)    SX(2604)    SX(2632)
                          SX(2661)    SX(2663)    SX(2687)    SX(2688)
                          SX(2717)    SX(2767)    SX(2796)    SX(2798)
                          SX(2799)    SX(2800)    SX(2801)    SX(2892)
                          SX(2922)    SX(2950)    SX(3008)    SX(3009)
                          SX(3042)    SX(3043)    SX(3156)    SX(3210)
                          SX(3211)    SX(3262)    SX(3308)    SX(3382)
                          SX(3431)    SX(3432)    SX(3445)    SX(3581)
                          SX(3730)    SX(3732)    SX(3786)    SX(3812)
                          SX(3889)    SX(3941)    SX(4164)    SX(4186)
                          SX(4187)    SX(4213)    SX(4214)    SX(4289)
                          SX(4290)    SX(4303)    SX(4304)    SX(4305)
                          SX(4392)    SX(4482)    SX(4484)    SX(4485)
                          SX(4486)    SX(4642)    SX(4673)    SX(4674)
                          SX(4729)    SX(4785)    SX(4786)    SX(4813)
                          SX(4871)    SX(4966)    SX(5045)    SX(5046)
                          SX(5085)    SX(5086)    SX(5125)    SX(5179)
                          SX(5206)    SX(5207)    SX(5281)    SX(5320)
                          SX(5404)    SX(5452)    SX(5453)    SX(5475)
                          SX(5476)    SX(5500)    SX(5524)    SX(5629)
                          SX(5630)    SX(5657)    SX(5658)    SX(5743)
                          SX(5744)    SX(5746)    SX(5747)    SX(5748)
                          SX(5965)    SX(5976)    SX(5982)    SX(6018)
                          SX(6086)    SX(6087)    SX(6088)    SX(6282)
                          SX(6283)    SX(6547)    SX(6614)    SX(6615)
                          SX(6617)    SX(6636)    SX(6644)    SX(6645)
                          SX(6680)    SX(6688)    SX(6689)    SX(6691)
                          SX(6802)    SX(6821)    SX(6823)    SX(6941)
                          SX(6986)    SX(6988)    SX(7121)    SX(7123)
                          SX(7247)    SX(7274)    SX(7287)    SX(7288)
                          SX(7295)    SX(7308)    SX(7311)    SX(7312)
                          SX(7314)    SX(7317)    SX(7567)    SX(7605)
                          SX(7784)    SX(7807)    SX(7809)    SX(7810)
                          SX(7811)    SX(7843)    SX(7851)    SX(7878)
                          SX(7882)    SX(7899)    SX(7900)    SX(7906)
                          SX(7907)    SX(7932)    SX(7938)    SX(7939)
                          SX(7944)    SX(7945)    SX(7986)    SX(8000)
                          SX(8001)    SX(8028)    SX(8047)    SX(8048)
                          SX(8067)    SX(8210)    SX(8267)    SX(8275)
                          SX(8288)    SX(8289)    SX(8441)    SX(8442)
                          SX(8582)    SX(8587)    SX(8588)    SX(8591)
                          SX(8592)    SX(8593)    SX(8601)    SX(8603)
                          SX(8633)    SX(8634)""",
                site_density=2.72e-09,
                phases="gas",
          reactions='surface1-*',
                initial_state=state(temperature=300.0, pressure=OneAtm))

#-------------------------------------------------------------------------------
# Element data
#-------------------------------------------------------------------------------

element(symbol=u'X', atomic_mass=195.083)
element(symbol=u'Ci', atomic_mass=13.003)
element(symbol=u'D', atomic_mass=2.014)
element(symbol=u'Oi', atomic_mass=18.0)
element(symbol=u'T', atomic_mass=3.016)
#-------------------------------------------------------------------------------
# Species data
#-------------------------------------------------------------------------------

species(name=u'n-heptane',
        atoms='H:16 C:7',
        thermo=(NASA([100.00, 1262.73],
                     [-2.91681405E-03,  7.69373649E-02, -3.48025563E-05,
                       1.86095180E-09,  2.01573617E-12, -2.57829342E+04,
                       3.00312148E+01]),
                NASA([1262.73, 5000.00],
                     [ 1.38377915E+01,  4.85945016E-02, -1.95474548E-05,
                       3.52837178E-09, -2.39064676E-13, -3.05141556E+04,
                      -4.48642836E+01])))

species(name=u'Ar',
        atoms='Ar:1',
        thermo=(NASA([200.00, 1000.00],
                     [ 2.50000000E+00,  0.00000000E+00,  0.00000000E+00,
                       0.00000000E+00,  0.00000000E+00, -7.45375000E+02,
                       4.37967000E+00]),
                NASA([1000.00, 6000.00],
                     [ 2.50000000E+00,  0.00000000E+00,  0.00000000E+00,
                       0.00000000E+00,  0.00000000E+00, -7.45375000E+02,
                       4.37967000E+00])))

species(name=u'He',
        atoms='He:1',
        thermo=(NASA([200.00, 1000.00],
                     [ 2.50000000E+00,  0.00000000E+00,  0.00000000E+00,
                       0.00000000E+00,  0.00000000E+00, -7.45375000E+02,
                       9.28724000E-01]),
                NASA([1000.00, 6000.00],
                     [ 2.50000000E+00,  0.00000000E+00,  0.00000000E+00,
                       0.00000000E+00,  0.00000000E+00, -7.45375000E+02,
                       9.28724000E-01])))

species(name=u'Ne',
        atoms='Ne:1',
        thermo=(NASA([200.00, 1000.00],
                     [ 2.50000000E+00,  0.00000000E+00,  0.00000000E+00,
                       0.00000000E+00,  0.00000000E+00, -7.45375000E+02,
                       3.35532000E+00]),
                NASA([1000.00, 6000.00],
                     [ 2.50000000E+00,  0.00000000E+00,  0.00000000E+00,
                       0.00000000E+00,  0.00000000E+00, -7.45375000E+02,
                       3.35532000E+00])))

species(name=u'N2',
        atoms='N:2',
        thermo=(NASA([200.00, 1000.00],
                     [ 3.53101000E+00, -1.23661000E-04, -5.02999000E-07,
                       2.43531000E-09, -1.40881000E-12, -1.04698000E+03,
                       2.96747000E+00]),
                NASA([1000.00, 6000.00],
                     [ 2.95258000E+00,  1.39690000E-03, -4.92632000E-07,
                       7.86010000E-11, -4.60755000E-15, -9.23949000E+02,
                       5.87189000E+00])))

species(name=u'C2H4(2)',
        atoms='H:4 C:2',
        thermo=(NASA([100.00, 979.36],
                     [ 3.97471606E+00, -4.75844285E-03,  4.16783770E-05,
                      -4.51392516E-08,  1.54224761E-11,  4.91540746E+03,
                       3.62430844E+00]),
                NASA([979.36, 5000.00],
                     [ 3.55660610E+00,  1.10627464E-02, -4.17019079E-06,
                       7.85586770E-10, -5.70060829E-14,  4.32046489E+03,
                       2.17719479E+00])))

species(name=u'C4H8-1(3)',
        atoms='H:8 C:4',
        thermo=(NASA([100.00, 1007.28],
                     [ 2.58772906E+00,  2.32777969E-02,  1.93412349E-05,
                      -3.55496333E-08,  1.36906009E-11, -1.91872926E+03,
                       1.45750618E+01]),
                NASA([1007.28, 5000.00],
                     [ 7.20517168E+00,  2.36361568E-02, -9.03150028E-06,
                       1.65392666E-09, -1.16019260E-13, -3.79733937E+03,
                      -1.24426257E+01])))

species(name=u'C4H8-2(4)',
        atoms='H:8 C:4',
        thermo=(NASA([100.00, 1157.79],
                     [ 2.51998327E+00,  2.76812799E-02,  9.43783469E-07,
                      -1.25009101E-08,  4.67144666E-12, -3.34374767E+03,
                       1.30195623E+01]),
                NASA([1157.79, 5000.00],
                     [ 6.04225708E+00,  2.60072350E-02, -1.04843374E-05,
                       1.90880922E-09, -1.30600505E-13, -4.86276511E+03,
                      -7.52715109E+00])))

species(name=u'C4H6(7)',
        atoms='H:6 C:4',
        thermo=(NASA([100.00, 946.05],
                     [ 2.80599310E+00,  1.02584471E-02,  6.17260255E-05,
                      -9.01642687E-08,  3.59116961E-11,  1.16584972E+04,
                       1.20621434E+01]),
                NASA([946.05, 5000.00],
                     [ 1.24693720E+01,  1.00553901E-02, -2.41206872E-06,
                       4.57077303E-10, -3.93160571E-14,  8.01077795E+03,
                      -4.36374720E+01])))

species(name=u'C6H8(9)',
        atoms='H:8 C:6',
        thermo=(NASA([100.00, 941.22],
                     [ 1.38427980E+00,  4.14411503E-02,  1.94287417E-05,
                      -6.16688700E-08,  2.86503633E-11,  1.76317461E+04,
                       1.93257509E+01]),
                NASA([941.22, 5000.00],
                     [ 1.69619680E+01,  1.57221707E-02, -4.10118367E-06,
                       6.95736344E-10, -5.26521484E-14,  1.29061672E+04,
                      -6.44097553E+01])))

species(name=u'C3H6(24)',
        atoms='H:6 C:3',
        thermo=(NASA([100.00, 983.75],
                     [ 3.31912102E+00,  8.17958674E-03,  3.34736123E-05,
                      -4.36193684E-08,  1.58213364E-11,  7.49325328E+02,
                       9.54025058E+00]),
                NASA([983.75, 5000.00],
                     [ 5.36755173E+00,  1.70743019E-02, -6.35107626E-06,
                       1.16619529E-09, -8.27620279E-14, -4.87138326E+02,
                      -4.54467529E+00])))

species(name=u'H2(47)',
        atoms='H:2',
        thermo=(NASA([100.00, 1959.08],
                     [ 3.43536412E+00,  2.12710353E-04, -2.78625043E-07,
                       3.40267167E-10, -7.76031998E-14, -1.03135984E+03,
                      -3.90841732E+00]),
                NASA([1959.08, 5000.00],
                     [ 2.78816583E+00,  5.87640942E-04,  1.59010417E-07,
                      -5.52739026E-11,  4.34310984E-15, -5.96144270E+02,
                       1.12732655E-01])))

species(name=u'C6H10(183)',
        atoms='H:10 C:6',
        thermo=(NASA([100.00, 1020.63],
                     [ 9.97427413E-01,  5.59777045E-02, -2.05880600E-05,
                      -1.17182304E-08,  8.13452041E-12,  6.30749855E+03,
                       2.38941836E+01]),
                NASA([1020.63, 5000.00],
                     [ 1.33828218E+01,  2.83661253E-02, -1.07663110E-05,
                       1.95749020E-09, -1.36589418E-13,  2.68926840E+03,
                      -4.14511818E+01])))

species(name=u'C8H12(184)',
        atoms='H:12 C:8',
        thermo=(NASA([100.00, 1002.94],
                     [ 1.69489980E-02,  7.28189377E-02, -2.16585698E-05,
                      -2.40807783E-08,  1.44597041E-11,  1.38562447E+04,
                       3.07679077E+01]),
                NASA([1002.94, 5000.00],
                     [ 1.77276883E+01,  3.45993801E-02, -1.29781828E-05,
                       2.37500136E-09, -1.67643536E-13,  8.67334638E+03,
                      -6.28559377E+01])))

species(name=u'C5H8c(257)',
        atoms='H:8 C:5',
        thermo=(NASA([100.00, 1004.86],
                     [ 1.98273955E+00,  3.49998332E-02,  6.98515281E-06,
                      -3.05031334E-08,  1.32246652E-11,  6.96521034E+03,
                       1.60818191E+01]),
                NASA([1004.86, 5000.00],
                     [ 1.01246420E+01,  2.42323877E-02, -9.24886971E-06,
                       1.70115950E-09, -1.20059732E-13,  4.23624320E+03,
                      -2.86745770E+01])))

species(name=u'C8H12(484)',
        atoms='H:12 C:8',
        thermo=(NASA([100.00, 1016.52],
                     [-1.10429280E-01,  7.70814645E-02, -3.47833140E-05,
                      -1.00302869E-08,  9.42640217E-12,  1.21750142E+04,
                       2.97645889E+01]),
                NASA([1016.52, 5000.00],
                     [ 1.75623558E+01,  3.50022757E-02, -1.32158186E-05,
                       2.40320183E-09, -1.68059077E-13,  7.16317806E+03,
                      -6.27651255E+01])))

species(name=u'C8H12(512)',
        atoms='H:12 C:8',
        thermo=(NASA([100.00, 966.56],
                     [-1.28183216E-01,  7.35572918E-02, -1.44333618E-05,
                      -3.89698452E-08,  2.17299794E-11,  1.04422483E+04,
                       2.89601759E+01]),
                NASA([966.56, 5000.00],
                     [ 2.02785414E+01,  2.99584765E-02, -1.01704686E-05,
                       1.81720743E-09, -1.29537878E-13,  4.58909334E+03,
                      -7.86679341E+01])))

species(name=u'C2H6(803)',
        atoms='H:6 C:2',
        thermo=(NASA([100.00, 1012.42],
                     [ 3.72239291E+00,  1.65083841E-03,  3.44175530E-05,
                      -3.76858229E-08,  1.24450657E-11, -1.15575901E+04,
                       4.68247999E+00]),
                NASA([1012.42, 5000.00],
                     [ 2.82848257E+00,  1.73040568E-02, -6.73334245E-06,
                       1.23742024E-09, -8.65676410E-14, -1.19978080E+04,
                       5.93811707E+00])))

species(name=u'C8H14(821)',
        atoms='H:14 C:8',
        thermo=(NASA([100.00, 1506.76],
                     [ 5.49675181E-02,  8.43985440E-02, -5.64633487E-05,
                       1.98661295E-08, -2.94599969E-12, -7.77393079E+02,
                       2.95663347E+01]),
                NASA([1506.76, 5000.00],
                     [ 1.39949012E+01,  4.73919655E-02, -1.96226018E-05,
                       3.56583689E-09, -2.41458224E-13, -4.97819756E+03,
                      -4.34005510E+01])))

species(name=u'C8H14(822)',
        atoms='H:14 C:8',
        thermo=(NASA([100.00, 1174.15],
                     [-2.48893806E-01,  8.15158554E-02, -4.42339339E-05,
                       6.22964790E-09,  1.71501887E-12, -1.28111735E+03,
                       3.25109091E+01]),
                NASA([1174.15, 5000.00],
                     [ 1.57143058E+01,  4.38569816E-02, -1.74882869E-05,
                       3.17419854E-09, -2.17213293E-13, -6.18251438E+03,
                      -5.19740128E+01])))

species(name=u'C8H14(824)',
        atoms='H:14 C:8',
        thermo=(NASA([100.00, 1014.29],
                     [-3.67121846E-01,  8.14233516E-02, -3.11110886E-05,
                      -1.65487757E-08,  1.19185866E-11, -3.02333684E+03,
                       3.00035003E+01]),
                NASA([1014.29, 5000.00],
                     [ 1.79686767E+01,  3.98264136E-02, -1.50150741E-05,
                       2.72531006E-09, -1.90287561E-13, -8.32275149E+03,
                      -6.65042554E+01])))

species(name=u'C8H14(825)',
        atoms='H:14 C:8',
        thermo=(NASA([100.00, 1016.25],
                     [-1.96777655E-01,  7.73097837E-02, -2.22069863E-05,
                      -2.37965356E-08,  1.39851151E-11, -2.84093532E+03,
                       3.12908370E+01]),
                NASA([1016.25, 5000.00],
                     [ 1.72431734E+01,  4.07120734E-02, -1.54898359E-05,
                       2.82734689E-09, -1.98026375E-13, -8.04042418E+03,
                      -6.12697843E+01])))

species(name=u'C8H14(827)',
        atoms='H:14 C:8',
        thermo=(NASA([100.00, 999.32],
                     [-8.27296041E-02,  7.33926821E-02, -9.70961131E-06,
                      -3.77339221E-08,  1.91784792E-11, -2.27794802E+03,
                       3.16114703E+01]),
                NASA([999.32, 5000.00],
                     [ 1.74908493E+01,  3.99675318E-02, -1.49508424E-05,
                       2.72972667E-09, -1.92366979E-13, -7.63361766E+03,
                      -6.23819175E+01])))

species(name=u'CH4(830)',
        atoms='H:4 C:1',
        thermo=(NASA([100.00, 1084.12],
                     [ 4.20541524E+00, -5.35557362E-03,  2.51123265E-05,
                      -2.13762843E-08,  5.97523937E-12, -1.01619433E+04,
                      -9.21279283E-01]),
                NASA([1084.12, 5000.00],
                     [ 9.08265721E-01,  1.14540858E-02, -4.57173828E-06,
                       8.29191671E-10, -5.66314895E-14, -9.71997444E+03,
                       1.39930944E+01])))

species(name=u'C7H12(861)',
        atoms='H:12 C:7',
        thermo=(NASA([100.00, 1016.70],
                     [ 3.01260003E-01,  6.93239326E-02, -2.79061455E-05,
                      -1.19417116E-08,  9.27990587E-12, -3.26068174E+02,
                       2.53851511E+01]),
                NASA([1016.70, 5000.00],
                     [ 1.55703568E+01,  3.41922940E-02, -1.28717489E-05,
                       2.32849221E-09, -1.62040961E-13, -4.71997327E+03,
                      -5.48718412E+01])))

species(name=u'C3H8(869)',
        atoms='H:8 C:3',
        thermo=(NASA([100.00, 989.99],
                     [ 3.06336167E+00,  1.29214561E-02,  3.47032808E-05,
                      -4.70946154E-08,  1.71384141E-11, -1.43905789E+04,
                       1.07835592E+01]),
                NASA([989.99, 5000.00],
                     [ 5.60440043E+00,  2.19528785E-02, -8.22080610E-06,
                       1.50103993E-09, -1.05635358E-13, -1.58394038E+04,
                      -6.22623300E+00])))

species(name=u'S(1139)',
        atoms='H:16 C:10',
        thermo=(NASA([100.00, 996.21],
                     [-1.66222393E+00,  1.05913735E-01, -4.90518701E-05,
                      -1.54471216E-08,  1.45435417E-11,  3.25368421E+03,
                       3.72864712E+01]),
                NASA([996.21, 5000.00],
                     [ 2.37730101E+01,  4.38978636E-02, -1.60708071E-05,
                       2.89916239E-09, -2.03170384E-13, -3.80453052E+03,
                      -9.53173115E+01])))

species(name=u'S(1142)',
        atoms='H:16 C:10',
        thermo=(NASA([100.00, 996.21],
                     [-1.66222393E+00,  1.05913735E-01, -4.90518701E-05,
                      -1.54471216E-08,  1.45435417E-11,  3.25368421E+03,
                       3.79796184E+01]),
                NASA([996.21, 5000.00],
                     [ 2.37730101E+01,  4.38978636E-02, -1.60708071E-05,
                       2.89916239E-09, -2.03170384E-13, -3.80453052E+03,
                      -9.46241644E+01])))

species(name=u'C4H8(1243)',
        atoms='H:8 C:4',
        thermo=(NASA([100.00, 1061.33],
                     [ 2.52504770E+00,  2.64752782E-02,  7.08359238E-06,
                      -2.07731462E-08,  8.00430055E-12, -4.02607130E+03,
                       1.28857274E+01]),
                NASA([1061.33, 5000.00],
                     [ 6.48672669E+00,  2.49943921E-02, -9.83283171E-06,
                       1.79343299E-09, -1.24008235E-13, -5.62452310E+03,
                      -1.00316397E+01])))

species(name=u'S(2530)',
        atoms='H:12 C:7',
        thermo=(NASA([100.00, 1002.43],
                     [ 5.99026497E-01,  6.08356728E-02, -5.37073264E-06,
                      -3.39970972E-08,  1.67132278E-11,  1.51423754E+03,
                       2.71654250E+01]),
                NASA([1002.43, 5000.00],
                     [ 1.50955492E+01,  3.44559544E-02, -1.29812324E-05,
                       2.37752287E-09, -1.67696341E-13, -2.97306291E+03,
                      -5.06926804E+01])))

species(name=u'S(3613)',
        atoms='H:14 C:8',
        thermo=(NASA([100.00, 1061.60],
                     [-2.92612015E-01,  8.13598166E-02, -3.75111047E-05,
                      -5.26746011E-09,  6.79996745E-12, -3.15203310E+03,
                       3.11249298E+01]),
                NASA([1061.60, 5000.00],
                     [ 1.65258017E+01,  4.22160438E-02, -1.64331635E-05,
                       2.99218456E-09, -2.07335165E-13, -8.08806756E+03,
                      -5.74492182E+01])))

species(name=u'S(3712)',
        atoms='H:18 C:10',
        thermo=(NASA([100.00, 1380.53],
                     [-1.24630044E+00,  1.14045057E-01, -8.17752249E-05,
                       3.15462852E-08, -5.16232066E-12, -8.15220733E+03,
                       3.79046400E+01]),
                NASA([1380.53, 5000.00],
                     [ 1.62908629E+01,  6.32321518E-02, -2.65649428E-05,
                       4.88485819E-09, -3.34200347E-13, -1.29943174E+04,
                      -5.23571791E+01])))

species(name=u'S(3741)',
        atoms='H:18 C:10',
        thermo=(NASA([100.00, 1717.23],
                     [-1.98574086E+00,  1.14573109E-01, -7.68576584E-05,
                       2.57563585E-08, -3.48008894E-12, -7.05206785E+03,
                       4.03916955E+01]),
                NASA([1717.23, 5000.00],
                     [ 2.63343643E+01,  4.86058840E-02, -1.92350594E-05,
                       3.38589678E-09, -2.23309689E-13, -1.67784537E+04,
                      -1.11549358E+02])))

species(name=u'S(3844)',
        atoms='H:16 C:10',
        thermo=(NASA([100.00, 998.54],
                     [-1.49361052E+00,  1.01821732E-01, -4.02286750E-05,
                      -2.25819229E-08,  1.65582874E-11,  3.43615932E+03,
                       3.85799402E+01]),
                NASA([998.54, 5000.00],
                     [ 2.30500803E+01,  4.47787502E-02, -1.65426556E-05,
                       3.00048373E-09, -2.10848170E-13, -3.52315514E+03,
                      -9.00970829E+01])))

species(name=u'S(4738)',
        atoms='H:18 C:10',
        thermo=(NASA([100.00, 1039.92],
                     [-1.68892614E+00,  1.04892160E-01, -3.63678012E-05,
                      -2.44904322E-08,  1.57571722E-11, -8.20566676E+03,
                       3.91111957E+01]),
                NASA([1039.92, 5000.00],
                     [ 2.26524637E+01,  5.26991456E-02, -2.08505326E-05,
                       3.87716665E-09, -2.73674615E-13, -1.55087267E+04,
                      -9.00469670E+01])))

species(name=u'S(5135)',
        atoms='H:16 C:9',
        thermo=(NASA([100.00, 1049.37],
                     [-9.57273759E-01,  9.34200886E-02, -4.06032236E-05,
                      -9.98285932E-09,  9.46717084E-12, -5.67334058E+03,
                       3.62667901E+01]),
                NASA([1049.37, 5000.00],
                     [ 1.88795817E+01,  4.79222431E-02, -1.86165785E-05,
                       3.39822097E-09, -2.36330876E-13, -1.14947648E+04,
                      -6.82913544E+01])))

species(name=u'S(5188)',
        atoms='H:18 C:10',
        thermo=(NASA([100.00, 1188.78],
                     [-1.95300717E+00,  1.15046892E-01, -7.59923563E-05,
                       2.20571103E-08, -1.46154816E-12, -1.03349424E+04,
                       4.06077933E+01]),
                NASA([1188.78, 5000.00],
                     [ 2.15567328E+01,  5.36921349E-02, -2.09728234E-05,
                       3.76285270E-09, -2.55770737E-13, -1.71787854E+04,
                      -8.21540077E+01])))

species(name=u'S(6293)',
        atoms='H:16 C:9',
        thermo=(NASA([100.00, 1049.37],
                     [-9.57274244E-01,  9.34200943E-02, -4.06032431E-05,
                      -9.98283469E-09,  9.46716070E-12, -5.84946720E+03,
                       3.64227897E+01]),
                NASA([1049.37, 5000.00],
                     [ 1.88795842E+01,  4.79222390E-02, -1.86165762E-05,
                       3.39822043E-09, -2.36330832E-13, -1.16708925E+04,
                      -6.81353703E+01])))

species(name=u'S(6436)',
        atoms='H:14 C:8',
        thermo=(NASA([100.00, 1061.60],
                     [-2.92612951E-01,  8.13598275E-02, -3.75111418E-05,
                      -5.26741361E-09,  6.79994848E-12, -2.97590642E+03,
                       3.09689353E+01]),
                NASA([1061.60, 5000.00],
                     [ 1.65258066E+01,  4.22160356E-02, -1.64331588E-05,
                       2.99218348E-09, -2.07335076E-13, -7.91194306E+03,
                      -5.76052440E+01])))

species(name=u'S(6684)',
        atoms='H:22 C:12',
        thermo=(NASA([100.00, 1596.86],
                     [-3.18371219E+00,  1.43266074E-01, -9.98088042E-05,
                       3.53671123E-08, -5.11123579E-12, -1.39291257E+04,
                       4.83379473E+01]),
                NASA([1596.86, 5000.00],
                     [ 2.79748183E+01,  6.52166955E-02, -2.64937440E-05,
                       4.75914950E-09, -3.19344884E-13, -2.38803032E+04,
                      -1.16567413E+02])))

species(name=u'S(6825)',
        atoms='H:22 C:12',
        thermo=(NASA([100.00, 1560.60],
                     [-3.64054127E+00,  1.45950192E-01, -1.05415282E-04,
                       3.92761964E-08, -5.92020768E-12, -1.58527244E+04,
                       5.18478521E+01]),
                NASA([1560.60, 5000.00],
                     [ 2.99361750E+01,  5.98898044E-02, -2.26973547E-05,
                       3.94051510E-09, -2.59658559E-13, -2.63327690E+04,
                      -1.25084652E+02])))

species(name=u'S(6994)',
        atoms='H:18 C:10',
        thermo=(NASA([100.00, 1094.79],
                     [-1.73795358E+00,  1.09740435E-01, -5.95940445E-05,
                       4.38633164E-09,  4.81035036E-12, -8.68096900E+03,
                       4.14729115E+01]),
                NASA([1094.79, 5000.00],
                     [ 2.07755997E+01,  5.47147585E-02, -2.15120482E-05,
                       3.91609088E-09, -2.70339200E-13, -1.52424356E+04,
                      -7.66340500E+01])))

species(name=u'S(7588)',
        atoms='H:16 C:10',
        thermo=(NASA([100.00, 1229.16],
                     [-1.23227976E+00,  1.00673635E-01, -5.88841439E-05,
                       1.32036496E-08,  9.09127158E-14,  4.10984197E+03,
                       3.69552522E+01]),
                NASA([1229.16, 5000.00],
                     [ 1.86490137E+01,  5.27948045E-02, -2.09816111E-05,
                       3.77914893E-09, -2.56565365E-13, -2.04822431E+03,
                      -6.82312293E+01])))

species(name=u'X(1)',
        atoms='X:1',
        thermo=(NASA([100.00, 1554.80],
                     [ 7.10139498E-03, -4.25619522E-05,  8.98533016E-08,
                      -7.80193649E-11,  2.32465471E-14, -8.76101712E-01,
                      -3.11211229E-02]),
                NASA([1554.80, 5000.00],
                     [ 1.60299900E-01, -2.52235409E-04,  1.14181275E-07,
                      -1.21471653E-11,  3.85790025E-16, -7.08100885E+01,
                      -9.09527530E-01])))

species(name=u'HX(5)',
        atoms='H:1 X:1',
        thermo=(NASA([100.00, 952.91],
                     [-3.80965452E-01,  5.47228709E-03,  2.60912778E-06,
                      -9.64961980E-09,  4.63946753E-12, -7.19163862E+02,
                       1.01725550E+00]),
                NASA([952.91, 5000.00],
                     [ 2.80339655E+00, -5.41047017E-04,  4.99507978E-07,
                      -7.54963647E-11,  3.06772366E-15, -1.65991328E+03,
                      -1.59436787E+01])))

species(name=u'C2H3X(27)',
        atoms='H:3 C:2 X:1',
        thermo=(NASA([100.00, 928.62],
                     [ 3.83091018E+00, -8.76381562E-03,  6.97956896E-05,
                      -8.67969174E-08,  3.33218121E-11,  3.05085711E+03,
                      -1.81151753E+01]),
                NASA([928.62, 5000.00],
                     [ 8.78054562E+00,  1.92497720E-03,  8.25825014E-07,