units(length='cm', time='s', quantity='mol', act_energy='kcal/mol')

ideal_gas(name='gas',
          elements="H D T C Ci O Oi N Ne Ar He Si S Cl X",
          species="""n-heptane   Ar          He          Ne
                     N2          C2H4(2)     C4H8-1(3)   C4H8-2(4)
                     C4H6(7)     C2H5(24)    H2(68)      C4H6a(79)
                     C6H10d(84)  C2H6(110)   C6H8(185)   C8H10(191)
                     S(306)      S(317)      C8H10(531)  S(539)
                     C8H10(735)  C8H10(738)  S(1339)     C8H8(1886)""",
          reactions='gas-*',
          transport='Mix',
          initial_state=state(temperature=300.0, pressure=OneAtm))

ideal_interface(name='surface1',
                elements="H D T C Ci O Oi N Ne Ar He Si S Cl X",
                species="""X(1)        HX(5)       C2H3X(37)   C2H5X(40)
                          C4H5X(80)   C4H5X(81)   C6H7X(221)  C6H7X(223)
                          C8H9X(532)  C8H9X(534)  SX(1719)""",
                site_density=2.72e-09,
                phases="gas",
          reactions='surface1-*',
                initial_state=state(temperature=300.0, pressure=OneAtm))

#-------------------------------------------------------------------------------
# Element data
#-------------------------------------------------------------------------------

element(symbol=u'X', atomic_mass=195.083)
element(symbol=u'Ci', atomic_mass=13.003)
element(symbol=u'D', atomic_mass=2.014)
element(symbol=u'Oi', atomic_mass=18.0)
element(symbol=u'T', atomic_mass=3.016)
#-------------------------------------------------------------------------------
# Species data
#-------------------------------------------------------------------------------

species(name=u'n-heptane',
        atoms='H:16 C:7',
        thermo=(NASA([100.00, 1262.73],
                     [-2.91681405E-03,  7.69373649E-02, -3.48025563E-05,
                       1.86095180E-09,  2.01573617E-12, -2.57829342E+04,
                       3.00312148E+01]),
                NASA([1262.73, 5000.00],
                     [ 1.38377915E+01,  4.85945016E-02, -1.95474548E-05,
                       3.52837178E-09, -2.39064676E-13, -3.05141556E+04,
                      -4.48642836E+01])),
        transport=gas_transport(geom='nonlinear',
                                diam=6.366,
                                well_depth=402.997))

species(name=u'Ar',
        atoms='Ar:1',
        thermo=(NASA([200.00, 1000.00],
                     [ 2.50000000E+00,  0.00000000E+00,  0.00000000E+00,
                       0.00000000E+00,  0.00000000E+00, -7.45375000E+02,
                       4.37967000E+00]),
                NASA([1000.00, 6000.00],
                     [ 2.50000000E+00,  0.00000000E+00,  0.00000000E+00,
                       0.00000000E+00,  0.00000000E+00, -7.45375000E+02,
                       4.37967000E+00])),
        transport=gas_transport(geom='atom',
                                diam=3.33,
                                well_depth=136.5))

species(name=u'He',
        atoms='He:1',
        thermo=(NASA([200.00, 1000.00],
                     [ 2.50000000E+00,  0.00000000E+00,  0.00000000E+00,
                       0.00000000E+00,  0.00000000E+00, -7.45375000E+02,
                       9.28724000E-01]),
                NASA([1000.00, 6000.00],
                     [ 2.50000000E+00,  0.00000000E+00,  0.00000000E+00,
                       0.00000000E+00,  0.00000000E+00, -7.45375000E+02,
                       9.28724000E-01])),
        transport=gas_transport(geom='atom',
                                diam=2.576,
                                well_depth=10.2))

species(name=u'Ne',
        atoms='Ne:1',
        thermo=(NASA([200.00, 1000.00],
                     [ 2.50000000E+00,  0.00000000E+00,  0.00000000E+00,
                       0.00000000E+00,  0.00000000E+00, -7.45375000E+02,
                       3.35532000E+00]),
                NASA([1000.00, 6000.00],
                     [ 2.50000000E+00,  0.00000000E+00,  0.00000000E+00,
                       0.00000000E+00,  0.00000000E+00, -7.45375000E+02,
                       3.35532000E+00])),
        transport=gas_transport(geom='atom',
                                diam=3.758,
                                well_depth=148.6))

species(name=u'N2',
        atoms='N:2',
        thermo=(NASA([200.00, 1000.00],
                     [ 3.53101000E+00, -1.23661000E-04, -5.02999000E-07,
                       2.43531000E-09, -1.40881000E-12, -1.04698000E+03,
                       2.96747000E+00]),
                NASA([1000.00, 6000.00],
                     [ 2.95258000E+00,  1.39690000E-03, -4.92632000E-07,
                       7.86010000E-11, -4.60755000E-15, -9.23949000E+02,
                       5.87189000E+00])),
        transport=gas_transport(geom='linear',
                                diam=3.621,
                                well_depth=97.53,
                                polar=1.76,
                                rot_relax=4.0))

species(name=u'C2H4(2)',
        atoms='H:4 C:2',
        thermo=(NASA([100.00, 979.36],
                     [ 3.97471606E+00, -4.75844285E-03,  4.16783770E-05,
                      -4.51392516E-08,  1.54224761E-11,  4.91540746E+03,
                       3.62430844E+00]),
                NASA([979.36, 5000.00],
                     [ 3.55660610E+00,  1.10627464E-02, -4.17019079E-06,
                       7.85586770E-10, -5.70060829E-14,  4.32046489E+03,
                       2.17719479E+00])),
        transport=gas_transport(geom='nonlinear',
                                diam=3.971,
                                well_depth=280.8,
                                rot_relax=1.5))

species(name=u'C4H8-1(3)',
        atoms='H:8 C:4',
        thermo=(NASA([100.00, 1007.28],
                     [ 2.58772906E+00,  2.32777969E-02,  1.93412349E-05,
                      -3.55496333E-08,  1.36906009E-11, -1.91872926E+03,
                       1.45750618E+01]),
                NASA([1007.28, 5000.00],
                     [ 7.20517168E+00,  2.36361568E-02, -9.03150028E-06,
                       1.65392666E-09, -1.16019260E-13, -3.79733937E+03,
                      -1.24426257E+01])),
        transport=gas_transport(geom='nonlinear',
                                diam=5.176,
                                well_depth=357.002,
                                rot_relax=1.0))

species(name=u'C4H8-2(4)',
        atoms='H:8 C:4',
        thermo=(NASA([100.00, 1157.79],
                     [ 2.51998327E+00,  2.76812799E-02,  9.43783469E-07,
                      -1.25009101E-08,  4.67144666E-12, -3.34374767E+03,
                       1.30195623E+01]),
                NASA([1157.79, 5000.00],
                     [ 6.04225708E+00,  2.60072350E-02, -1.04843374E-05,
                       1.90880922E-09, -1.30600505E-13, -4.86276511E+03,
                      -7.52715109E+00])),
        transport=gas_transport(geom='nonlinear',
                                diam=5.289,
                                well_depth=359.053))

species(name=u'C4H6(7)',
        atoms='H:6 C:4',
        thermo=(NASA([100.00, 946.05],
                     [ 2.80599310E+00,  1.02584471E-02,  6.17260255E-05,
                      -9.01642687E-08,  3.59116961E-11,  1.16584972E+04,
                       1.20621434E+01]),
                NASA([946.05, 5000.00],
                     [ 1.24693720E+01,  1.00553901E-02, -2.41206872E-06,
                       4.57077303E-10, -3.93160571E-14,  8.01077795E+03,
                      -4.36374720E+01])),
        transport=gas_transport(geom='nonlinear',
                                diam=5.18,
                                well_depth=357.002,
                                rot_relax=1.0))

species(name=u'C2H5(24)',
        atoms='H:5 C:2',
        thermo=(NASA([100.00, 1006.87],
                     [ 3.68746539E+00,  3.06889693E-03,  2.55873112E-05,
                      -2.94076576E-08,  9.94076215E-12,  1.31153648E+04,
                       6.96684864E+00]),
                NASA([1006.87, 5000.00],
                     [ 3.53781010E+00,  1.37311636E-02, -5.29564638E-06,
                       9.71482858E-10, -6.80289490E-14,  1.26351790E+04,
                       5.15566048E+00])),
        transport=gas_transport(geom='nonlinear',
                                diam=4.302,
                                well_depth=252.3,
                                rot_relax=1.5))

species(name=u'H2(68)',
        atoms='H:2',
        thermo=(NASA([100.00, 1959.08],
                     [ 3.43536412E+00,  2.12710353E-04, -2.78625043E-07,
                       3.40267167E-10, -7.76031998E-14, -1.03135984E+03,
                      -3.90841732E+00]),
                NASA([1959.08, 5000.00],
                     [ 2.78816583E+00,  5.87640942E-04,  1.59010417E-07,
                      -5.52739026E-11,  4.34310984E-15, -5.96144270E+02,
                       1.12732655E-01])),
        transport=gas_transport(geom='linear',
                                diam=2.833,
                                well_depth=59.7))

species(name=u'C4H6a(79)',
        atoms='H:6 C:4',
        thermo=(NASA([100.00, 950.38],
                     [ 3.41327601E+00, -4.60830638E-03,  9.57205603E-05,
                      -1.18800574E-07,  4.44495312E-11,  1.74039828E+04,
                       1.01517556E+01]),
                NASA([950.38, 5000.00],
                     [ 9.72156091E+00,  1.36879055E-02, -3.93842260E-06,
                       7.58710118E-10, -6.16013131E-14,  1.41795804E+04,
                      -3.06164436E+01])),
        transport=gas_transport(geom='nonlinear',
                                diam=5.503,
                                well_depth=381.31))

species(name=u'C6H10d(84)',
        atoms='H:10 C:6',
        thermo=(NASA([100.00, 969.70],
                     [ 2.39493639E+00,  1.31308716E-02,  1.02019898E-04,
                      -1.35266841E-07,  5.06735576E-11, -2.55363631E+03,
                       1.63461006E+01]),
                NASA([969.70, 5000.00],
                     [ 1.20193596E+01,  2.96991246E-02, -1.06504175E-05,
                       2.03502649E-09, -1.52378829E-13, -7.06570658E+03,
                      -4.34309725E+01])),
        transport=gas_transport(geom='nonlinear',
                                diam=6.352,
                                well_depth=436.658))

species(name=u'C2H6(110)',
        atoms='H:6 C:2',
        thermo=(NASA([100.00, 1012.42],
                     [ 3.72239291E+00,  1.65083841E-03,  3.44175530E-05,
                      -3.76858229E-08,  1.24450657E-11, -1.15575901E+04,
                       4.68247999E+00]),
                NASA([1012.42, 5000.00],
                     [ 2.82848257E+00,  1.73040568E-02, -6.73334245E-06,
                       1.23742024E-09, -8.65676410E-14, -1.19978080E+04,
                       5.93811707E+00])),
        transport=gas_transport(geom='nonlinear',
                                diam=4.302,
                                well_depth=252.3,
                                rot_relax=1.5))

species(name=u'C6H8(185)',
        atoms='H:8 C:6',
        thermo=(NASA([100.00, 972.94],
                     [ 1.82686070E+00,  3.47046353E-02,  2.41070171E-05,
                      -5.44847920E-08,  2.29388832E-11,  1.99100661E+04,
                       1.81393315E+01]),
                NASA([972.94, 5000.00],
                     [ 1.21686202E+01,  2.40472785E-02, -8.58151834E-06,
                       1.57034031E-09, -1.12795334E-13,  1.63897115E+04,
                      -3.92195169E+01])),
        transport=gas_transport(geom='nonlinear',
                                diam=5.466,
                                well_depth=388.421))

species(name=u'C8H10(191)',
        atoms='H:10 C:8',
        thermo=(NASA([100.00, 1006.91],
                     [ 9.59099136E-01,  5.26052795E-02,  1.05118295E-05,
                      -4.60808495E-08,  1.99632153E-11,  2.84660811E+04,
                       2.42924801E+01]),
                NASA([1006.91, 5000.00],
                     [ 1.34171277E+01,  3.60526403E-02, -1.38971709E-05,
                       2.56761905E-09, -1.81631637E-13,  2.42875578E+04,
                      -4.41873377E+01])),
        transport=gas_transport(geom='nonlinear',
                                diam=5.916,
                                well_depth=426.619))

species(name=u'S(306)',
        atoms='H:16 C:12',
        thermo=(NASA([100.00, 980.77],
                     [-2.21845665E+00,  1.15202302E-01, -4.46058253E-05,
                      -2.89292454E-08,  2.08193354E-11,  3.97133228E+04,
                       4.48687920E+01]),
                NASA([980.77, 5000.00],
                     [ 2.59409200E+01,  4.89148103E-02, -1.74910345E-05,
                       3.12129948E-09, -2.18247198E-13,  3.18543069E+04,
                      -1.02343316E+02])),
        transport=gas_transport(geom='nonlinear',
                                diam=7.303,
                                well_depth=512.085))

species(name=u'S(317)',
        atoms='H:16 C:12',
        thermo=(NASA([100.00, 989.29],
                     [-1.49871027E+00,  8.97231513E-02,  3.13728211E-05,
                      -1.05849951E-07,  4.65472901E-11,  2.08342656E+04,
                       3.86324941E+01]),
                NASA([989.29, 5000.00],
                     [ 2.71231573E+01,  4.82447418E-02, -1.83146882E-05,
                       3.49879125E-09, -2.57494969E-13,  1.15378770E+04,
                      -1.17506583E+02])),
        transport=gas_transport(geom='nonlinear',
                                diam=7.622,
                                well_depth=543.084))

species(name=u'C8H10(531)',
        atoms='H:10 C:8',
        thermo=(NASA([100.00, 977.35],
                     [ 1.20173571E+00,  3.27272819E-02,  9.65447107E-05,
                      -1.46973565E-07,  5.73039020E-11,  3.66668175E+04,
                       1.86379877E+01]),
                NASA([977.35, 5000.00],
                     [ 1.91455040E+01,  3.13149575E-02, -1.18305343E-05,
                       2.35397473E-09, -1.80727667E-13,  2.97193290E+04,
                      -8.51179199E+01])),
        transport=gas_transport(geom='nonlinear',
                                diam=6.701,
                                well_depth=475.276))

species(name=u'S(539)',
        atoms='H:14 C:10',
        thermo=(NASA([100.00, 983.25],
                     [-1.38350471E+00,  1.01159823E-01, -4.95402826E-05,
                      -1.28912645E-08,  1.37493268E-11,  4.19903237E+04,
                       3.96553675E+01]),
                NASA([983.25, 5000.00],
                     [ 2.29971917E+01,  4.00098439E-02, -1.42759806E-05,
                       2.53991910E-09, -1.77061903E-13,  3.53573307E+04,
                      -8.69048201E+01])),
        transport=gas_transport(geom='nonlinear',
                                diam=6.819,
                                well_depth=469.576))

species(name=u'C8H10(735)',
        atoms='H:10 C:8',
        thermo=(NASA([100.00, 957.55],
                     [ 1.73539227E+00,  2.87801312E-02,  7.54153593E-05,
                      -1.15295592E-07,  4.54874767E-11,  2.46873806E+04,
                       1.90756697E+01]),
                NASA([957.55, 5000.00],
                     [ 1.39660524E+01,  3.05169609E-02, -1.00601247E-05,
                       1.82939743E-09, -1.34072190E-13,  1.99231482E+04,
                      -5.20461491E+01])),
        transport=gas_transport(geom='nonlinear',
                                diam=6.816,
                                well_depth=493.534))

species(name=u'C8H10(738)',
        atoms='H:10 C:8',
        thermo=(NASA([100.00, 960.17],
                     [ 1.31160506E+00,  3.24125837E-02,  8.72989364E-05,
                      -1.37749171E-07,  5.51079162E-11,  3.55773232E+04,
                       1.84792231E+01]),
                NASA([960.17, 5000.00],
                     [ 1.87421293E+01,  2.68465487E-02, -8.75115001E-06,
                       1.66824706E-09, -1.28641150E-13,  2.91394220E+04,
                      -8.09988750E+01])),
        transport=gas_transport(geom='nonlinear',
                                diam=6.344,
                                well_depth=455.249))

species(name=u'S(1339)',
        atoms='H:14 C:10',
        thermo=(NASA([100.00, 1039.97],
                     [-5.34394260E-01,  8.13966085E-02, -9.68853751E-06,
                      -3.92425171E-08,  1.88475142E-11,  4.12360917E+04,
                       3.40505615E+01]),
                NASA([1039.97, 5000.00],
                     [ 1.82559431E+01,  4.86836284E-02, -1.95633170E-05,
                       3.66424475E-09, -2.59537701E-13,  3.51885346E+04,
                      -6.76236342E+01])),
        transport=gas_transport(geom='nonlinear',
                                diam=7.24,
                                well_depth=496.92))

species(name=u'C8H8(1886)',
        atoms='H:8 C:8',
        thermo=(NASA([100.00, 983.83],
                     [ 1.92596424E+00,  2.47040059E-02,  7.62837520E-05,
                      -1.11335235E-07,  4.24408740E-11,  2.30697835E+04,
                       1.75396165E+01]),
                NASA([983.83, 5000.00],
                     [ 1.35367928E+01,  2.98728521E-02, -1.14511503E-05,
                       2.22694660E-09, -1.66311845E-13,  1.82503901E+04,
                      -5.11688056E+01])),
        transport=gas_transport(geom='nonlinear',
                                diam=5.949,
                                well_depth=399.3))

species(name=u'X(1)',
        atoms='X:1',
        thermo=(NASA([100.00, 1554.80],
                     [ 7.10139498E-03, -4.25619522E-05,  8.98533016E-08,
                      -7.80193649E-11,  2.32465471E-14, -8.76101712E-01,
                      -3.11211229E-02]),
                NASA([1554.80, 5000.00],
                     [ 1.60299900E-01, -2.52235409E-04,  1.14181275E-07,
                      -1.21471653E-11,  3.85790025E-16, -7.08100885E+01,
                      -9.09527530E-01])))

species(name=u'HX(5)',
        atoms='H:1 X:1',
        thermo=(NASA([100.00, 952.91],
                     [-3.80965452E-01,  5.47228709E-03,  2.60912778E-06,
                      -9.64961980E-09,  4.63946753E-12,  2.18196270E+03,
                       1.01725550E+00]),
                NASA([952.91, 5000.00],
                     [ 2.80339655E+00, -5.41047017E-04,  4.99507978E-07,
                      -7.54963647E-11,  3.06772366E-15,  1.24121328E+03,
                      -1.59436787E+01])))

species(name=u'C2H3X(37)',
        atoms='H:3 C:2 X:1',
        thermo=(NASA([100.00, 928.62],
                     [ 3.83091018E+00, -8.76381562E-03,  6.97956896E-05,
                      -8.67969174E-08,  3.33218121E-11,  1.53806450E+04,
                      -1.81151753E+01]),
                NASA([928.62, 5000.00],
                     [ 8.78054562E+00,  1.92497720E-03,  8.25825014E-07,
                      -1.63749818E-10,  5.71728318E-15,  1.30812419E+04,
                      -4.90588618E+01])))

species(name=u'C2H5X(40)',
        atoms='H:5 C:2 X:1',
        thermo=(NASA([100.00, 803.81],
                     [-1.64625424E+00,  3.89626488E-02, -4.31128887E-05,
                       2.97076939E-08, -8.80222915E-12,  3.67645335E+03,
                       9.27323637E+00]),
                NASA([803.81, 5000.00],
                     [ 1.97598112E+00,  2.09382766E-02, -9.47916922E-06,
                       1.81392948E-09, -1.27206354E-13,  3.09410457E+03,
                      -7.41107956E+00])))

species(name=u'C4H5X(80)',
        atoms='H:5 C:4 X:1',
        thermo=(NASA([100.00, 936.52],
                     [ 2.68471723E+00,  1.36244496E-02,  5.32591849E-05,
                      -8.32912448E-08,  3.41499374E-11,  1.74738752E+04,
                      -1.06510487E+01]),
                NASA([936.52, 5000.00],
                     [ 1.29012266E+01,  8.96921861E-03, -1.71920076E-06,
                       2.89744517E-10, -2.58686364E-14,  1.38508362E+04,
                      -6.83963397E+01])))

species(name=u'C4H5X(81)',
        atoms='H:5 C:4 X:1',
        thermo=(NASA([100.00, 928.63],
                     [ 2.64232495E+00,  8.31109593E-03,  8.12146261E-05,
                      -1.21398701E-07,  4.98630759E-11,  2.26567839E+04,
                      -1.03932963E+01]),
                NASA([928.63, 5000.00],
                     [ 1.69490474E+01,  2.00818812E-03,  2.03468841E-06,
                      -4.02657023E-10,  1.85400094E-14,  1.76142896E+04,
                      -9.11990785E+01])))

species(name=u'C6H7X(221)',
        atoms='H:7 C:6 X:1',
        thermo=(NASA([100.00, 939.12],
                     [ 1.23971063E+00,  4.15294424E-02,  2.87312030E-05,
                      -7.68516542E-08,  3.51745289E-11,  2.29404784E+04,
                      -4.03285459E+00]),
                NASA([939.12, 5000.00],
                     [ 1.93724853E+01,  1.27701081E-02, -2.75741682E-06,
                       4.63865028E-10, -3.86965214E-14,  1.73971482E+04,
                      -1.01754711E+02])))

species(name=u'C6H7X(223)',
        atoms='H:7 C:6 X:1',
        thermo=(NASA([100.00, 945.31],
                     [ 1.76545134E+00,  3.00643386E-02,  5.04823806E-05,
                      -9.18356912E-08,  3.86710488E-11,  3.05564199E+04,
                      -4.22047906E+00]),
                NASA([945.31, 5000.00],
                     [ 1.62876414E+01,  1.66989483E-02, -4.60790511E-06,
                       8.23797195E-10, -6.40998588E-14,  2.56623872E+04,
                      -8.48285150E+01])))

species(name=u'C8H9X(532)',
        atoms='H:9 C:8 X:1',
        thermo=(NASA([100.00, 959.28],
                     [ 3.85882967E-01,  5.92908085E-02,  1.54833399E-05,
                      -6.86507645E-08,  3.21558607E-11,  3.14958821E+04,
                       2.06887013E+00]),
                NASA([959.28, 5000.00],
                     [ 2.04284767E+01,  2.50940018E-02, -8.25315628E-06,
                       1.50306504E-09, -1.10971517E-13,  2.53787286E+04,
                      -1.05633347E+02])))

species(name=u'C8H9X(534)',
        atoms='H:9 C:8 X:1',
        thermo=(NASA([100.00, 965.61],
                     [ 9.11784647E-01,  4.78191273E-02,  3.72831813E-05,
                      -8.37427917E-08,  3.57220277E-11,  3.91118185E+04,
                       1.88094318E+00]),
                NASA([965.61, 5000.00],
                     [ 1.73636393E+01,  2.89899348E-02, -1.00851243E-05,
                       1.85870102E-09, -1.36023408E-13,  3.36352136E+04,
                      -8.88204343E+01])))

species(name=u'SX(1719)',
        atoms='H:9 C:8 X:1',
        thermo=(NASA([100.00, 1548.49],
                     [-9.50632864E-01,  7.99661316E-02, -9.43576830E-05,
                       5.93176963E-08, -1.26873053E-11,  2.85028224E+04,
                       2.86686632E+00]),
                NASA([1548.49, 5000.00],
                     [ 6.47442218E+00,  1.76713590E-02,  7.75108132E-06,
                      -2.62378438E-09,  2.15984226E-13,  3.13723389E+04,
                      -1.95109425E+01])))

#-------------------------------------------------------------------------------
# Reaction data
#-------------------------------------------------------------------------------
#  Reaction index: Chemkin #1; RMG #220
#  Template reaction: Disproportionation
#  Flux pairs: C2H5(24), C2H4(2); C2H5(24), C2H6(110);
#  Matched reaction 6 C2H5 + C2H5-2 <=> C2H6 + C2H4 in Disproportionation/training
#  This reaction matched rate rule [C_rad/H2/Cs;Cmethyl_Csrad]
#  family: Disproportionation

# Reaction 1
reaction('C2H5(24) + C2H5(24) <=> C2H4(2) + C2H6(110)', [6.900000e+13, -0.35, 0.0],
         id='gas-1')
#  Reaction index: Chemkin #2; RMG #113
#  Template reaction: Intra_2+2_cycloaddition_Cd
#  Flux pairs: C4H6(7), C4H6a(79);
#  Estimated using template [1,3-butadiene_backbone;C=C_1;C=C_2] for rate rule [1,3-butadiene_backbone;CdH2_1;CdH2_2]
#  Euclidian distance = 1.41421356237
#  family: Intra_2+2_cycloaddition_Cd

# Reaction 2
reaction('C4H6(7) <=> C4H6a(79)', [4.999980e+11, 0.056, 29.257],
         id='gas-2')
#  Reaction index: Chemkin #3; RMG #122
#  Template reaction: Diels_alder_addition
#  Flux pairs: C4H6(7), C6H10d(84); C2H4(2), C6H10d(84);
#  Matched reaction 1 C4H6 + C2H4 <=> C6H10 in Diels_alder_addition/training
#  This reaction matched rate rule [diene_unsub_unsub_out;diene_in_2H;ene_unsub_unsub]
#  family: Diels_alder_addition

# Reaction 3
reaction('C2H4(2) + C4H6(7) <=> C6H10d(84)', [1.000000e+10, 0.0, 20.0],
         id='gas-3')
#  Reaction index: Chemkin #4; RMG #622
#  Template reaction: 1,4_Linear_birad_scission
#  Flux pairs: S(306), C6H8(185); S(306), C6H8(185);
#  Exact match found for rate rule [RJJ]
#  Euclidian distance = 0
#  family: 1,4_Linear_birad_scission
#  Ea raised from 0.0 to 1.4 kJ/mol to match endothermicity of reaction.

# Reaction 4
reaction('S(306) <=> C6H8(185) + C6H8(185)', [5.000000e+12, 0.0, 0.338],
         id='gas-4')
#  Reaction index: Chemkin #5; RMG #928
#  Template reaction: 1,4_Cyclic_birad_scission
#  Flux pairs: C8H10(531), C8H10(191);
#  Estimated using template [RJJ] for rate rule [R6JJ]
#  Euclidian distance = 1.0
#  family: 1,4_Cyclic_birad_scission

# Reaction 5
reaction('C8H10(531) <=> C8H10(191)', [1.000000e+13, 0.0, 0.0],
         id='gas-5')
#  Reaction index: Chemkin #6; RMG #939
#  Template reaction: 1,4_Linear_birad_scission
#  Flux pairs: S(539), C8H10(191); S(539), C2H4(2);
#  Exact match found for rate rule [RJJ]
#  Euclidian distance = 0
#  family: 1,4_Linear_birad_scission

# Reaction 6
reaction('S(539) <=> C2H4(2) + C8H10(191)', [5.000000e+12, 0.0, 0.0],
         id='gas-6')
#  Reaction index: Chemkin #7; RMG #1300
#  Template reaction: Birad_recombination
#  Flux pairs: C8H10(531), C8H10(738);
#  Estimated using average of templates [Rn;C_rad_out_H/OneDe;Cpri_rad_out_single] + [R4_SSS;C_rad_out_single;Cpri_rad_out_single] for rate rule
#  [R4_SSS;C_rad_out_H/OneDe;Cpri_rad_out_H/OneDe]
#  Euclidian distance = 2.82842712475
#  family: Birad_recombination

# Reaction 7
reaction('C8H10(531) <=> C8H10(738)', [1.800000e+12, -0.152, 1.89],
         id='gas-7')
#  Reaction index: Chemkin #8; RMG #2150
#  Template reaction: 1,4_Linear_birad_scission
#  Flux pairs: S(1339), C8H10(738); S(1339), C2H4(2);
#  Exact match found for rate rule [RJJ]
#  Euclidian distance = 0
#  family: 1,4_Linear_birad_scission

# Reaction 8
reaction('S(1339) <=> C2H4(2) + C8H10(738)', [5.000000e+12, 0.0, 0.0],
         id='gas-8')
#  Reaction index: Chemkin #9; RMG #1297
#  Template reaction: Birad_recombination
#  Flux pairs: C8H10(531), C8H10(735);
#  From training reaction 2 used for R4_SSS;C_rad_out_2H;Cpri_rad_out_2H
#  Exact match found for rate rule [R4_SSS;C_rad_out_2H;Cpri_rad_out_2H]
#  Euclidian distance = 0
#  family: Birad_recombination

# Reaction 9
reaction('C8H10(531) <=> C8H10(735)', [1.620000e+12, -0.305, 1.98],
         id='gas-9')
#  Reaction index: Chemkin #10; RMG #2138
#  Template reaction: 6_membered_central_C-C_shift
#  Flux pairs: C8H10(738), C8H10(735);
#  Estimated using template [1_5_unsaturated_hexane] for rate rule [1_5_hexadiene]
#  Euclidian distance = 1.0
#  family: 6_membered_central_C-C_shift

# Reaction 10
reaction('C8H10(738) <=> C8H10(735)', [6.211841e+10, 0.288, 35.146],
         id='gas-10')
#  Reaction index: Chemkin #11; RMG #633
#  Template reaction: Diels_alder_addition
#  Flux pairs: C6H8(185), S(317); C6H8(185), S(317);
#  Estimated using template [diene_unsub_unsub_out;diene_in;ene] for rate rule [diene_unsub_unsub_out;diene_in_HDe;ene_De2_2H]
#  Euclidian distance = 2.2360679775
#  Multiplied by reaction path degeneracy 2.0
#  family: Diels_alder_addition

# Reaction 11
reaction('C6H8(185) + C6H8(185) <=> S(317)', [3.076471e+08, 0.441, 24.113],
         options='duplicate',
         id='gas-11')
#  Reaction index: Chemkin #12; RMG #636
#  Template reaction: Diels_alder_addition
#  Flux pairs: C6H8(185), S(317); C6H8(185), S(317);
#  Estimated using template [diene_unsub_unsub_out;diene_in;ene] for rate rule [diene_unsub_unsub_out;diene_in_DeH;ene_2H_De2]
#  Euclidian distance = 2.2360679775
#  family: Diels_alder_addition

# Reaction 12
reaction('C6H8(185) + C6H8(185) <=> S(317)', [1.538235e+08, 0.441, 24.113],
         options='duplicate',
         id='gas-12')
#  Reaction index: Chemkin #13; RMG #728
#  Template reaction: Birad_recombination
#  Flux pairs: S(306), S(317);
#  Estimated using template [R6_SSSDS;C_rad_out_single;Cpri_rad_out_2H] for rate rule [R6_SSSDS;C_rad_out_TwoDe;Cpri_rad_out_2H]
#  Euclidian distance = 2.0
#  Multiplied by reaction path degeneracy 4.0
#  family: Birad_recombination

# Reaction 13
reaction('S(306) <=> S(317)', [8.000000e+12, 0.0, 1.8],
         id='gas-13')
#  Reaction index: Chemkin #1; RMG #36
#  Template reaction: Surface_Adsorption_Dissociative
#  Flux pairs: C2H4(2), C2H3X(37); C2H4(2), HX(5);
#  Exact match found for rate rule [C-H;VacantSite1;VacantSite2]
#  Euclidian distance = 0
#  Multiplied by reaction path degeneracy 4.0
#  family: Surface_Adsorption_Dissociative

# surface1 Reaction 1
surface_reaction('C2H4(2) + X(1) + X(1) <=> HX(5) + C2H3X(37)', stick(1.240000e-04, 0.0, 25.31),
                 id='surface1-1')
#  Reaction index: Chemkin #2; RMG #104
#  Template reaction: Surface_Adsorption_Dissociative
#  Flux pairs: C4H6(7), C2H3X(37); C4H6(7), C2H3X(37);
#  Exact match found for rate rule [C-C;VacantSite1;VacantSite2]
#  Euclidian distance = 0
#  family: Surface_Adsorption_Dissociative

# surface1 Reaction 2
surface_reaction('X(1) + X(1) + C4H6(7) <=> C2H3X(37) + C2H3X(37)', stick(6.595000e-04, 0.0, 39.452),
                 id='surface1-2')
#  Reaction index: Chemkin #3; RMG #96
#  Template reaction: Surface_Adsorption_Dissociative