units(length='cm', time='s', quantity='mol', act_energy='kcal/mol')

ideal_gas(name='gas',
          elements="H D T C Ci O Oi N Ne Ar He Si S Cl X",
          species="""n-heptane   Ar          He          Ne
                     N2          C2H4(2)     C4H8-1(3)   C4H8-2(4)
                     H2(68)      C2H6(80)    C4H10(82)   C6H14(154)
                     C6H14(169)  C4H10(185)  C6H14(189)  C8H18(195)
                     C8H18(196)  C6H14(206)  S(2857)     S(2940)
                     S(16600)""",
          reactions='gas-*',
          initial_state=state(temperature=300.0, pressure=OneAtm))

ideal_interface(name='surface1',
                elements="H D T C Ci O Oi N Ne Ar He Si S Cl X",
                species="""X(1)        HX(5)       C2H3X(37)   CH3X(39)
                          C2H5X(40)   C4H7X(41)   C4H7X(42)   C4H7X(43)
                          C4H7X(44)   C4H9X(64)   C4H9X(65)   C2H2X(70)
                          C6H11X(72)  C6H11X(73)  CH2X(75)    C2H4X(76)
                          C6H13X(77)  C6H13X(78)  C6H13X(79)  C6H11X(96)
                          C8H15X(98)  C4H7X(107)  SX(108)     SX(110)
                          SX(111)     C4H6X(131)  SX(132)     SX(134)
                          SX(135)     SX(148)     SX(149)     SX(150)
                          SX(151)     C4H9X(161)  SX(164)     SX(165)
                          SX(166)     SX(167)     SX(168)     C4H9X(177)
                          SX(181)     SX(182)     SX(183)     SX(184)
                          SX(188)     SX(200)     SX(201)     SX(202)
                          SX(203)     SX(205)     SX(218)     SX(239)
                          SX(240)     SX(244)     SX(264)     SX(285)
                          SX(286)     SX(287)     SX(289)     SX(331)
                          SX(335)     SX(360)     SX(363)     SX(387)
                          SX(412)     SX(476)     SX(558)     SX(590)
                          SX(591)     SX(592)     SX(624)     SX(625)
                          SX(661)     SX(662)     SX(664)     SX(699)
                          SX(700)     SX(778)     SX(942)     SX(943)
                          SX(988)     SX(1034)    SX(1079)    SX(1080)
                          SX(1081)    SX(1173)    SX(1174)    SX(1175)
                          SX(1176)    SX(2022)    SX(2023)    SX(2283)
                          SX(2284)    SX(2355)    SX(2356)    SX(2358)
                          SX(2567)    SX(2717)    SX(2721)    SX(2723)
                          SX(2724)    SX(2784)    SX(2788)    SX(2850)
                          SX(2853)    SX(2928)    SX(2929)    SX(2933)
                          SX(2935)    SX(2936)    SX(3011)    SX(3014)
                          SX(3088)    SX(3090)    SX(3091)    SX(3155)
                          SX(3223)    SX(3226)    SX(3286)    SX(3354)
                          SX(3356)    SX(3427)    SX(3512)    SX(3515)
                          SX(3594)    SX(3596)    SX(3665)    SX(3669)
                          SX(3757)    SX(3841)    SX(3916)    SX(4080)
                          CHX(4480)   SX(4628)    SX(4645)    SX(4686)
                          SX(4695)    SX(4696)    SX(4698)    SX(4699)
                          SX(4701)    SX(4703)    SX(4705)    SX(4707)
                          SX(4709)    SX(4710)    SX(4712)    SX(4823)
                          SX(5162)    SX(5163)    SX(5252)    SX(5253)
                          SX(5254)    SX(5358)    SX(5359)    SX(5473)
                          SX(5474)    SX(5477)    SX(5572)    SX(5582)
                          SX(5583)    SX(5690)    SX(5804)    SX(5805)
                          SX(6029)    SX(6222)    SX(6225)    SX(6322)
                          SX(6343)    SX(6346)    SX(6438)    SX(6553)
                          SX(6555)    SX(6858)    SX(6951)    SX(7098)
                          SX(7100)    SX(7198)    SX(7433)    SX(7434)
                          SX(7526)    SX(7814)    SX(7817)    SX(7908)
                          SX(7938)    SX(7940)    SX(8029)    SX(8194)
                          SX(8331)    SX(8457)    SX(8683)    SX(8819)
                          SX(8961)    SX(9091)    SX(9234)    SX(9235)
                          SX(9628)    SX(9766)    SX(10159)   SX(10848)
                          SX(10995)   SX(11254)   SX(11255)   SX(11713)
                          SX(11862)   SX(12177)   SX(12178)   SX(13496)
                          SX(13838)   SX(15442)   SX(16601)   SX(17905)
                          SX(17906)   SX(18069)   SX(18070)   SX(18071)
                          SX(18470)   SX(18471)   SX(18472)   SX(18670)
                          SX(18671)   SX(19074)   SX(19075)   SX(19280)
                          SX(19281)   SX(19483)   SX(19893)   SX(20239)
                          SX(20240)   SX(20856)   SX(21234)   SX(21774)
                          SX(22208)   SX(22209)   SX(22850)   SX(22851)
                          SX(23070)   SX(23735)   SX(24115)   SX(24116)
                          SX(24562)   SX(24563)   SX(24564)   SX(24565)
                          SX(25216)   SX(25217)   SX(25440)   SX(25441)
                          SX(25442)   SX(25672)   SX(26340)   SX(26805)
                          SX(27487)   SX(27488)   SX(28171)   SX(28172)
                          SX(28663)   SX(28664)   SX(28907)   SX(28908)
                          SX(29637)   SX(30564)   SX(30565)   SX(32544)
                          SX(33055)   SX(33056)   SX(33319)   SX(33320)
                          SX(33574)   SX(34604)   SX(34605)""",
                site_density=2.72e-09,
                phases="gas",
          reactions='surface1-*',
                initial_state=state(temperature=300.0, pressure=OneAtm))

#-------------------------------------------------------------------------------
# Element data
#-------------------------------------------------------------------------------

element(symbol=u'X', atomic_mass=195.083)
element(symbol=u'Ci', atomic_mass=13.003)
element(symbol=u'D', atomic_mass=2.014)
element(symbol=u'Oi', atomic_mass=18.0)
element(symbol=u'T', atomic_mass=3.016)
#-------------------------------------------------------------------------------
# Species data
#-------------------------------------------------------------------------------

species(name=u'n-heptane',
        atoms='H:16 C:7',
        thermo=(NASA([100.00, 1262.73],
                     [-2.91681405E-03,  7.69373649E-02, -3.48025563E-05,
                       1.86095180E-09,  2.01573617E-12, -2.57829342E+04,
                       3.00312148E+01]),
                NASA([1262.73, 5000.00],
                     [ 1.38377915E+01,  4.85945016E-02, -1.95474548E-05,
                       3.52837178E-09, -2.39064676E-13, -3.05141556E+04,
                      -4.48642836E+01])))

species(name=u'Ar',
        atoms='Ar:1',
        thermo=(NASA([200.00, 1000.00],
                     [ 2.50000000E+00,  0.00000000E+00,  0.00000000E+00,
                       0.00000000E+00,  0.00000000E+00, -7.45375000E+02,
                       4.37967000E+00]),
                NASA([1000.00, 6000.00],
                     [ 2.50000000E+00,  0.00000000E+00,  0.00000000E+00,
                       0.00000000E+00,  0.00000000E+00, -7.45375000E+02,
                       4.37967000E+00])))

species(name=u'He',
        atoms='He:1',
        thermo=(NASA([200.00, 1000.00],
                     [ 2.50000000E+00,  0.00000000E+00,  0.00000000E+00,
                       0.00000000E+00,  0.00000000E+00, -7.45375000E+02,
                       9.28724000E-01]),
                NASA([1000.00, 6000.00],
                     [ 2.50000000E+00,  0.00000000E+00,  0.00000000E+00,
                       0.00000000E+00,  0.00000000E+00, -7.45375000E+02,
                       9.28724000E-01])))

species(name=u'Ne',
        atoms='Ne:1',
        thermo=(NASA([200.00, 1000.00],
                     [ 2.50000000E+00,  0.00000000E+00,  0.00000000E+00,
                       0.00000000E+00,  0.00000000E+00, -7.45375000E+02,
                       3.35532000E+00]),
                NASA([1000.00, 6000.00],
                     [ 2.50000000E+00,  0.00000000E+00,  0.00000000E+00,
                       0.00000000E+00,  0.00000000E+00, -7.45375000E+02,
                       3.35532000E+00])))

species(name=u'N2',
        atoms='N:2',
        thermo=(NASA([200.00, 1000.00],
                     [ 3.53101000E+00, -1.23661000E-04, -5.02999000E-07,
                       2.43531000E-09, -1.40881000E-12, -1.04698000E+03,
                       2.96747000E+00]),
                NASA([1000.00, 6000.00],
                     [ 2.95258000E+00,  1.39690000E-03, -4.92632000E-07,
                       7.86010000E-11, -4.60755000E-15, -9.23949000E+02,
                       5.87189000E+00])))

species(name=u'C2H4(2)',
        atoms='H:4 C:2',
        thermo=(NASA([100.00, 979.36],
                     [ 3.97471606E+00, -4.75844285E-03,  4.16783770E-05,
                      -4.51392516E-08,  1.54224761E-11,  4.91540746E+03,
                       3.62430844E+00]),
                NASA([979.36, 5000.00],
                     [ 3.55660610E+00,  1.10627464E-02, -4.17019079E-06,
                       7.85586770E-10, -5.70060829E-14,  4.32046489E+03,
                       2.17719479E+00])))

species(name=u'C4H8-1(3)',
        atoms='H:8 C:4',
        thermo=(NASA([100.00, 1007.28],
                     [ 2.58772906E+00,  2.32777969E-02,  1.93412349E-05,
                      -3.55496333E-08,  1.36906009E-11, -1.91872926E+03,
                       1.45750618E+01]),
                NASA([1007.28, 5000.00],
                     [ 7.20517168E+00,  2.36361568E-02, -9.03150028E-06,
                       1.65392666E-09, -1.16019260E-13, -3.79733937E+03,
                      -1.24426257E+01])))

species(name=u'C4H8-2(4)',
        atoms='H:8 C:4',
        thermo=(NASA([100.00, 1157.79],
                     [ 2.51998327E+00,  2.76812799E-02,  9.43783469E-07,
                      -1.25009101E-08,  4.67144666E-12, -3.34374767E+03,
                       1.30195623E+01]),
                NASA([1157.79, 5000.00],
                     [ 6.04225708E+00,  2.60072350E-02, -1.04843374E-05,
                       1.90880922E-09, -1.30600505E-13, -4.86276511E+03,
                      -7.52715109E+00])))

species(name=u'H2(68)',
        atoms='H:2',
        thermo=(NASA([100.00, 1959.08],
                     [ 3.43536412E+00,  2.12710353E-04, -2.78625043E-07,
                       3.40267167E-10, -7.76031998E-14, -1.03135984E+03,
                      -3.90841732E+00]),
                NASA([1959.08, 5000.00],
                     [ 2.78816583E+00,  5.87640942E-04,  1.59010417E-07,
                      -5.52739026E-11,  4.34310984E-15, -5.96144270E+02,
                       1.12732655E-01])))

species(name=u'C2H6(80)',
        atoms='H:6 C:2',
        thermo=(NASA([100.00, 1012.42],
                     [ 3.72239291E+00,  1.65083841E-03,  3.44175530E-05,
                      -3.76858229E-08,  1.24450657E-11, -1.15575901E+04,
                       4.68247999E+00]),
                NASA([1012.42, 5000.00],
                     [ 2.82848257E+00,  1.73040568E-02, -6.73334245E-06,
                       1.23742024E-09, -8.65676410E-14, -1.19978080E+04,
                       5.93811707E+00])))

species(name=u'C4H10(82)',
        atoms='H:10 C:4',
        thermo=(NASA([100.00, 1147.60],
                     [ 2.16918413E+00,  3.43904632E-02, -1.61564236E-06,
                      -1.30726562E-08,  5.17350451E-12, -1.72505136E+04,
                       1.46546701E+01]),
                NASA([1147.60, 5000.00],
                     [ 6.78903089E+00,  3.03598162E-02, -1.21262050E-05,
                       2.19945025E-09, -1.50289312E-13, -1.91057969E+04,
                      -1.17329103E+01])))

species(name=u'C6H14(154)',
        atoms='H:14 C:6',
        thermo=(NASA([100.00, 1048.16],
                     [ 8.83603407E-01,  5.70449582E-02, -2.15511769E-06,
                      -2.85512365E-08,  1.26618641E-11, -2.27982664E+04,
                       2.50352381E+01]),
                NASA([1048.16, 5000.00],
                     [ 1.11354266E+01,  4.25244017E-02, -1.65829595E-05,
                       3.01864905E-09, -2.09013581E-13, -2.62988561E+04,
                      -3.13529752E+01])))

species(name=u'C6H14(169)',
        atoms='H:14 C:6',
        thermo=(NASA([100.00, 1237.11],
                     [ 9.36204265E-01,  5.80630250E-02, -1.05197660E-05,
                      -1.36320323E-08,  5.73438090E-12, -2.34249411E+04,
                       2.40002576E+01]),
                NASA([1237.11, 5000.00],
                     [ 1.03159905E+01,  4.66440696E-02, -1.96015321E-05,
                       3.61730433E-09, -2.48224262E-13, -2.71926741E+04,
                      -2.90957696E+01])))

species(name=u'C4H10(185)',
        atoms='H:10 C:4',
        thermo=(NASA([100.00, 987.08],
                     [ 2.18594095E+00,  3.04312883E-02,  1.83387931E-05,
                      -4.04090927E-08,  1.64481872E-11, -1.82080408E+04,
                       1.37947641E+01]),
                NASA([987.08, 5000.00],
                     [ 8.84811268E+00,  2.61183046E-02, -9.57929598E-06,
                       1.72895160E-09, -1.21006821E-13, -2.06283634E+04,
                      -2.38575760E+01])))

species(name=u'C6H14(189)',
        atoms='H:14 C:6',
        thermo=(NASA([100.00, 1002.79],
                     [ 9.62511884E-01,  5.35099673E-02,  1.32037900E-05,
                      -4.70268617E-08,  1.98557427E-11, -2.36936864E+04,
                       2.41377511E+01]),
                NASA([1002.79, 5000.00],
                     [ 1.14867705E+01,  4.22488291E-02, -1.59010927E-05,
                       2.87000033E-09, -1.99356317E-13, -2.73489440E+04,
                      -3.43661848E+01])))

species(name=u'C8H18(195)',
        atoms='H:18 C:8',
        thermo=(NASA([100.00, 1206.86],
                     [-6.89609402E-01,  8.98708288E-02, -4.11358366E-05,
                       1.16625302E-09,  3.08116522E-12, -2.93013403E+04,
                       3.44576804E+01]),
                NASA([1206.86, 5000.00],
                     [ 1.56711370E+01,  5.50966005E-02, -2.20915345E-05,
                       4.00127562E-09, -2.72607063E-13, -3.46669336E+04,
                      -5.34184695E+01])))

species(name=u'C8H18(196)',
        atoms='H:18 C:8',
        thermo=(NASA([100.00, 1103.64],
                     [-5.78595688E-01,  8.63233750E-02, -2.81114488E-05,
                      -1.40871769E-08,  8.76045900E-12, -2.95864558E+04,
                       3.37703392E+01]),
                NASA([1103.64, 5000.00],
                     [ 1.53084896E+01,  5.52866759E-02, -2.20051288E-05,
                       4.01682589E-09, -2.77031625E-13, -3.47097411E+04,
                      -5.17661085E+01])))

species(name=u'C6H14(206)',
        atoms='H:14 C:6',
        thermo=(NASA([100.00, 999.60],
                     [ 1.13914864E+00,  5.18713751E-02,  1.51948225E-05,
                      -4.44277431E-08,  1.80491646E-11, -2.48256356E+04,
                       2.08096782E+01]),
                NASA([999.60, 5000.00],
                     [ 8.28885191E+00,  4.86579196E-02, -1.80934696E-05,
                       3.19040633E-09, -2.16940675E-13, -2.75238301E+04,
                      -2.00273110E+01])))

species(name=u'S(2857)',
        atoms='H:14 C:6',
        thermo=(NASA([100.00, 979.30],
                     [ 1.15761484E+00,  4.88425073E-02,  2.64137737E-05,
                      -6.01104569E-08,  2.45806956E-11, -2.37935343E+04,
                       2.21623322E+01]),
                NASA([979.30, 5000.00],
                     [ 1.04141051E+01,  4.37548510E-02, -1.59118175E-05,
                       2.82122166E-09, -1.94532762E-13, -2.71755416E+04,
                      -3.03122062E+01])))

species(name=u'S(2940)',
        atoms='H:18 C:8',
        thermo=(NASA([100.00, 1103.64],
                     [-5.78595688E-01,  8.63233750E-02, -2.81114488E-05,
                      -1.40871769E-08,  8.76045900E-12, -2.95864558E+04,
                       3.37703392E+01]),
                NASA([1103.64, 5000.00],
                     [ 1.53084896E+01,  5.52866759E-02, -2.20051288E-05,
                       4.01682589E-09, -2.77031625E-13, -3.47097411E+04,
                      -5.17661085E+01])))

species(name=u'S(16600)',
        atoms='H:14 C:7',
        thermo=(NASA([100.00, 1795.91],
                     [ 4.67394448E-01,  7.39879143E-02, -4.35585088E-05,
                       1.28813527E-08, -1.57471910E-12, -1.55850005E+04,
                       2.60792622E+01]),
                NASA([1795.91, 5000.00],
                     [ 1.48041804E+01,  4.20558172E-02, -1.68878126E-05,
                       2.98081587E-09, -1.96512255E-13, -2.07345134E+04,
                      -5.14817934E+01])))

species(name=u'X(1)',
        atoms='X:1',
        thermo=(NASA([100.00, 1554.80],
                     [ 7.10139498E-03, -4.25619522E-05,  8.98533016E-08,
                      -7.80193649E-11,  2.32465471E-14, -8.76101712E-01,
                      -3.11211229E-02]),
                NASA([1554.80, 5000.00],
                     [ 1.60299900E-01, -2.52235409E-04,  1.14181275E-07,
                      -1.21471653E-11,  3.85790025E-16, -7.08100885E+01,
                      -9.09527530E-01])))

species(name=u'HX(5)',
        atoms='H:1 X:1',
        thermo=(NASA([100.00, 952.91],
                     [-3.80965452E-01,  5.47228709E-03,  2.60912778E-06,
                      -9.64961980E-09,  4.63946753E-12, -6.52141699E+03,
                       1.01725550E+00]),
                NASA([952.91, 5000.00],
                     [ 2.80339655E+00, -5.41047017E-04,  4.99507978E-07,
                      -7.54963647E-11,  3.06772366E-15, -7.46216641E+03,
                      -1.59436787E+01])))

species(name=u'C2H3X(37)',
        atoms='H:3 C:2 X:1',
        thermo=(NASA([100.00, 928.62],
                     [ 3.83091018E+00, -8.76381562E-03,  6.97956896E-05,
                      -8.67969174E-08,  3.33218121E-11, -2.02611438E+03,
                      -1.81151753E+01]),
                NASA([928.62, 5000.00],
                     [ 8.78054562E+00,  1.92497720E-03,  8.25825014E-07,
                      -1.63749818E-10,  5.71728318E-15, -4.32551751E+03,
                      -4.90588618E+01])))

species(name=u'CH3X(39)',
        atoms='H:3 C:1 X:1',
        thermo=(NASA([100.00, 848.30],
                     [-1.21090496E+00,  2.92390681E-02, -4.49011079E-05,
                       3.86009808E-08, -1.30361041E-11, -9.74663102E+03,
                       6.80939750E+00]),
                NASA([848.30, 5000.00],
                     [ 1.62290877E+00,  1.12987268E-02, -5.08316908E-06,
                       9.46833581E-10, -6.42885536E-14, -1.00626959E+04,
                      -5.42501059E+00])))

species(name=u'C2H5X(40)',
        atoms='H:5 C:2 X:1',
        thermo=(NASA([100.00, 803.81],
                     [-1.64625424E+00,  3.89626488E-02, -4.31128887E-05,
                       2.97076939E-08, -8.80222915E-12, -1.37303060E+04,
                       9.27323637E+00]),
                NASA([803.81, 5000.00],
                     [ 1.97598112E+00,  2.09382766E-02, -9.47916922E-06,
                       1.81392948E-09, -1.27206354E-13, -1.43126548E+04,
                      -7.41107956E+00])))

species(name=u'C4H7X(41)',
        atoms='H:7 C:4 X:1',
        thermo=(NASA([100.00, 971.02],
                     [ 2.64365035E+00,  1.79007589E-02,  4.24443189E-05,
                      -6.44028479E-08,  2.49593993E-11, -9.52466195E+03,
                      -6.69991651E+00]),
                NASA([971.02, 5000.00],
                     [ 9.25871667E+00,  2.04064152E-02, -7.39143670E-06,
                       1.37021231E-09, -9.94133357E-14, -1.22121461E+04,
                      -4.56426102E+01])))

species(name=u'C4H7X(42)',
        atoms='H:7 C:4 X:1',
        thermo=(NASA([100.00, 986.67],
                     [ 2.45798205E+00,  2.47217336E-02,  2.01285964E-05,
                      -4.02735564E-08,  1.62485845E-11, -1.12247490E+03,
                      -5.12991781E+00]),
                NASA([986.67, 5000.00],
                     [ 8.87898065E+00,  2.09043993E-02, -7.83851223E-06,
                       1.44076477E-09, -1.02346878E-13, -3.47083101E+03,
                      -4.15007572E+01])))

species(name=u'C4H7X(43)',
        atoms='H:7 C:4 X:1',
        thermo=(NASA([100.00, 965.06],
                     [ 2.56877619E+00,  1.97500674E-02,  3.72961301E-05,
                      -6.04017092E-08,  2.39989018E-11, -9.79608281E+03,
                      -8.56564322E+00]),
                NASA([965.06, 5000.00],
                     [ 9.89778724E+00,  1.86142959E-02, -6.38884453E-06,
                       1.17309353E-09, -8.55406646E-14, -1.25723740E+04,
                      -5.07182348E+01])))

species(name=u'C4H7X(44)',
        atoms='H:7 C:4 X:1',
        thermo=(NASA([100.00, 949.35],
                     [ 2.54254539E+00,  1.77389010E-02,  4.93877612E-05,
                      -7.72878178E-08,  3.10660019E-11, -8.57044950E+03,
                      -8.46783968E+00]),
                NASA([949.35, 5000.00],
                     [ 1.15220223E+01,  1.60005944E-02, -4.89823595E-06,
                       8.83972924E-10, -6.63710570E-14, -1.19019818E+04,
                      -5.98888028E+01])))

species(name=u'C4H9X(64)',
        atoms='H:9 C:4 X:1',
        thermo=(NASA([100.00, 1009.34],
                     [ 2.45382734E+00,  2.40994657E-02,  3.11010256E-05,
                      -4.95699577E-08,  1.85293661E-11, -1.78684362E+04,
                      -3.52847415E+00]),
                NASA([1009.34, 5000.00],
                     [ 7.52084135E+00,  2.82413531E-02, -1.10515535E-05,
                       2.04772333E-09, -1.44617914E-13, -2.01251577E+04,
                      -3.41331625E+01])))

species(name=u'C4H9X(65)',
        atoms='H:9 C:4 X:1',
        thermo=(NASA([100.00, 993.09],
                     [ 2.22649262E+00,  2.86530428E-02,  2.37814781E-05,
                      -4.60601877E-08,  1.82913065E-11, -1.65854214E+04,
                      -3.55141667E+00]),
                NASA([993.09, 5000.00],
                     [ 9.09063018E+00,  2.59568873E-02, -9.83403420E-06,
                       1.80637207E-09, -1.27731480E-13, -1.91791428E+04,
                      -4.28140480E+01])))

species(name=u'C2H2X(70)',
        atoms='H:2 C:2 X:1',
        thermo=(NASA([100.00, 1146.89],
                     [-1.35665997E+00,  2.85338019E-02, -3.11240758E-05,
                       1.70134067E-08, -3.63322671E-12, -9.60073593E+03,
                       3.79543665E+00]),
                NASA([1146.89, 5000.00],
                     [ 4.86807469E+00,  6.82428196E-03, -2.73110334E-06,
                       5.09415334E-10, -3.57467832E-14, -1.10285822E+04,
                      -2.70885611E+01])))

species(name=u'C6H11X(72)',
        atoms='H:11 C:6 X:1',
        thermo=(NASA([100.00, 968.49],
                     [ 1.21380653E+00,  4.74385684E-02,  1.70473783E-05,
                      -5.31710482E-08,  2.32909786E-11, -8.13014672E+03,
                       5.18267936E+00]),
                NASA([968.49, 5000.00],
                     [ 1.29066493E+01,  3.25069116E-02, -1.14963418E-05,
                       2.04429996E-09, -1.42970869E-13, -1.19596438E+04,
                      -5.89317378E+01])))

species(name=u'C6H11X(73)',
        atoms='H:11 C:6 X:1',
        thermo=(NASA([100.00, 1026.60],
                     [ 1.36763236E+00,  4.47159424E-02,  1.77339332E-05,
                      -4.72504607E-08,  1.90469768E-11, -9.40436120E+03,
                       5.40777780E+00]),
                NASA([1026.60, 5000.00],
                     [ 1.14239279E+01,  3.61439866E-02, -1.44679608E-05,
                       2.70636835E-09, -1.91760853E-13, -1.30821774E+04,
                      -5.12283432E+01])))

species(name=u'CH2X(75)',
        atoms='H:2 C:1 X:1',
        thermo=(NASA([100.00, 1199.82],
                     [-1.02006594E+00,  2.03778552E-02, -2.17291076E-05,
                       1.15868543E-08, -2.38469979E-12, -7.60495471E+03,
                       2.99160459E+00]),
                NASA([1199.82, 5000.00],
                     [ 3.89285483E+00,  3.99892281E-03, -1.25227942E-06,
                       2.09081361E-10, -1.39642489E-14, -8.78387358E+03,
                      -2.16053707E+01])))

species(name=u'C2H4X(76)',
        atoms='H:4 C:2 X:1',
        thermo=(NASA([100.00, 922.92],
                     [-1.51744559E+00,  3.54364794E-02, -3.81057246E-05,
                       2.35708696E-08, -6.09814448E-12, -1.27134208E+04,
                       5.77183816E+00]),
                NASA([922.92, 5000.00],
                     [ 2.83446173E+00,  1.65755797E-02, -7.45248059E-06,
                       1.42932264E-09, -1.00637720E-13, -1.35167376E+04,
                      -1.48746526E+01])))

species(name=u'C6H13X(77)',
        atoms='H:13 C:6 X:1',
        thermo=(NASA([100.00, 1130.02],
                     [ 1.07508654E+00,  5.48320242E-02, -5.85499030E-06,
                      -1.87602461E-08,  7.94175434E-12, -2.36621170E+04,
                       6.68454494E+00]),
                NASA([1130.02, 5000.00],
                     [ 9.23587213E+00,  4.49494152E-02, -1.79636149E-05,
                       3.26621012E-09, -2.23874450E-13, -2.67198809E+04,
                      -3.90529659E+01])))

species(name=u'C6H13X(78)',
        atoms='H:13 C:6 X:1',
        thermo=(NASA([100.00, 1104.49],
                     [ 9.11736944E-01,  5.71186337E-02, -4.42064989E-06,
                      -2.31827364E-08,  9.89591048E-12, -2.29997145E+04,
                       4.93075254E+00]),
                NASA([1104.49, 5000.00],
                     [ 1.03931710E+01,  4.50091930E-02, -1.81629728E-05,
                       3.33345850E-09, -2.30373441E-13, -2.64499636E+04,
                      -4.78917391E+01])))

species(name=u'C6H13X(79)',
        atoms='H:13 C:6 X:1',
        thermo=(NASA([100.00, 1210.11],
                     [ 1.10826561E+00,  5.37308809E-02, -6.37927534E-07,
                      -2.23970084E-08,  8.32635868E-12, -2.42755668E+04,
                       5.70647071E+00]),
                NASA([1210.11, 5000.00],
                     [ 9.93913033E+00,  4.70609403E-02, -2.02853103E-05,
                       3.80581060E-09, -2.64092883E-13, -2.80617377E+04,
                      -4.53945281E+01])))

species(name=u'C6H11X(96)',
        atoms='H:11 C:6 X:1',
        thermo=(NASA([100.00, 996.76],
                     [ 1.22387093E+00,  4.65813911E-02,  1.88286839E-05,
                      -5.31476442E-08,  2.23784278E-11, -8.11041601E+03,
                       5.15231381E+00]),
                NASA([996.76, 5000.00],
                     [ 1.30217585E+01,  3.34007173E-02, -1.27486852E-05,
                       2.35864380E-09, -1.67706149E-13, -1.21595223E+04,
                      -6.02408109E+01])))

species(name=u'C8H15X(98)',
        atoms='H:15 C:8 X:1',
        thermo=(NASA([100.00, 994.85],
                     [-2.09636588E-01,  7.61893040E-02, -6.62762061E-06,
                      -4.13993950E-08,  2.03753360E-11, -1.40793460E+04,
                       1.45011449E+01]),
                NASA([994.85, 5000.00],
                     [ 1.65050247E+01,  4.60590351E-02, -1.70974140E-05,
                       3.07531984E-09, -2.13982995E-13, -1.92397566E+04,
                      -7.52720544E+01])))

species(name=u'C4H7X(107)',
        atoms='H:7 C:4 X:1',
        thermo=(NASA([100.00, 947.75],
                     [ 2.86440387E+00,  8.12954614E-03,  7.59606536E-05,
                      -1.03618267E-07,  4.00694538E-11, -9.50581845E+03,
                      -2.40038485E+00]),
                NASA([947.75, 5000.00],
                     [ 1.10489656E+01,  1.63914163E-02, -4.86280875E-06,
                       8.89632629E-10, -6.85128174E-14, -1.29796346E+04,
                      -5.15890409E+01])))

species(name=u'SX(108)',
        atoms='H:11 C:6 X:1',
        thermo=(NASA([100.00, 1049.69],
                     [ 1.36930266E+00,  4.38979115E-02,  2.01275568E-05,
                      -4.90824503E-08,  1.92320209E-11, -8.76767039E+03,
                       5.21493675E+00]),
                NASA([1049.69, 5000.00],
                     [ 1.20673516E+01,  3.58058064E-02, -1.50008038E-05,
                       2.88254699E-09, -2.07040682E-13, -1.28136942E+04,
                      -5.54902255E+01])))

species(name=u'SX(110)',
        atoms='H:15 C:8 X:1',
        thermo=(NASA([100.00, 1005.13],
                     [-3.22055147E-01,  7.98124476E-02, -1.76103808E-05,
                      -2.96342396E-08,  1.61170749E-11, -1.49915374E+04,
                       1.43648918E+01]),
                NASA([1005.13, 5000.00],
                     [ 1.64299397E+01,  4.63990599E-02, -1.73701608E-05,
                       3.12011437E-09, -2.16101739E-13, -2.00388649E+04,
                      -7.48953353E+01])))

species(name=u'SX(111)',
        atoms='H:15 C:8 X:1',
        thermo=(NASA([100.00, 1076.39],
                     [-1.86490911E-01,  7.72527624E-02, -1.72237273E-05,
                      -2.37578162E-08,  1.20984635E-11, -1.62649182E+04,
                       1.46587334E+01]),
                NASA([1076.39, 5000.00],
                     [ 1.53299553E+01,  4.94178646E-02, -1.99983944E-05,
                       3.70330996E-09, -2.58488056E-13, -2.13331305E+04,
                      -6.93675291E+01])))

species(name=u'C4H6X(131)',
        atoms='H:6 C:4 X:1',
        thermo=(NASA([100.00, 948.80],
                     [ 2.81046852E+00,  9.73952375E-03,  7.48756446E-05,
                      -1.02011004E-07,  3.92852520E-11, -9.51642875E+03,
                      -5.80393637E+00]),