units(length='cm', time='s', quantity='mol', act_energy='kcal/mol')

ideal_gas(name='gas',
          elements="H D T C Ci O Oi N Ne Ar He Si S Cl X",
          species="""n-heptane   Ar          He          Ne
                     N2          C2H4(2)     C4H8-1(3)   C4H8-2(4)
                     H2(68)      C4H10(117)  C6H14(234)  C5H12(242)
                     C6H14(258)  C5H12(265)  C6H14(283)  C6H14(307)
                     C5H12(315)  C7H16(340)  C7H16(368)  C6H14(384)
                     C7H16(428)  C7H16(490)  C7H16(519)  C7H16(581)""",
          reactions='gas-*',
          initial_state=state(temperature=300.0, pressure=OneAtm))

ideal_interface(name='surface1',
                elements="H D T C Ci O Oi N Ne Ar He Si S Cl X",
                species="""X(1)        HX(5)       C2H3X(37)   allylX(38)
                          CH3X(39)    C2H5X(40)   C4H7X(41)   C4H7X(42)
                          C4H7X(43)   C4H7X(44)   C3H5X(45)   C4H9X(64)
                          C4H9X(65)   C2H2X(70)   CH2X(74)    C2H4X(84)
                          C4H7X(95)   C3H5X(107)  SX(110)     SX(111)
                          SX(112)     CHX(157)    SX(199)     SX(200)
                          SX(201)     C2H3X(205)  SX(225)     SX(226)
                          SX(227)     SX(228)     SX(238)     SX(243)
                          SX(244)     C4H9X(249)  SX(250)     SX(251)
                          SX(252)     SX(253)     C4H9X(269)  SX(272)
                          SX(273)     SX(274)     SX(275)     SX(287)
                          SX(291)     SX(298)     SX(299)     SX(300)
                          SX(301)     SX(311)     SX(316)     SX(324)
                          SX(336)     SX(341)     SX(342)     SX(351)
                          SX(353)     SX(364)     SX(378)     SX(380)
                          SX(394)     SX(398)     SX(407)     SX(410)
                          SX(424)     SX(429)     SX(430)     SX(443)
                          SX(446)     SX(459)     SX(463)     SX(475)
                          SX(486)     SX(503)     SX(515)     SX(520)
                          SX(521)     SX(535)     SX(537)     SX(548)
                          SX(565)     SX(577)     SX(582)     SX(583)
                          SX(597)     SX(600)     SX(613)     SX(618)
                          SX(636)     SX(650)     SX(655)     SX(656)
                          SX(675)     SX(676)     SX(677)     SX(691)
                          SX(695)     SX(696)     SX(715)     SX(717)
                          SX(729)     SX(733)     SX(754)     SX(768)
                          SX(772)     SX(773)     SX(797)     SX(809)
                          SX(813)     SX(835)     SX(846)     SX(870)
                          SX(882)     SX(886)     SX(887)     SX(959)
                          SX(960)     SX(1001)    SX(1002)    SX(1003)
                          SX(1019)    SX(1049)    SX(1050)    SX(1052)
                          SX(1068)    SX(1073)    SX(1105)    SX(1106)
                          SX(1122)    SX(1157)    SX(1158)    SX(1173)
                          SX(1208)    SX(1225)    SX(1230)    SX(1263)
                          SX(1264)    SX(1266)    SX(1281)    SX(1286)
                          SX(1333)    SX(1381)    SX(1427)    SX(1432)
                          SX(1464)    SX(1482)    SX(1486)    SX(1525)
                          SX(1540)    SX(1593)    SX(1629)    SX(1642)
                          SX(1783)    SX(1798)    SX(1845)    SX(1860)
                          SX(1865)    SX(1909)    SX(1922)    SX(1960)
                          SX(1962)    SX(1977)    SX(1981)    SX(2041)
                          SX(2046)    SX(2085)    SX(2086)    SX(2100)
                          SX(2165)    SX(2170)    SX(2220)    SX(2235)
                          SX(2240)    SX(2291)    SX(2306)    SX(2358)
                          SX(2372)    SX(2440)    SX(2445)    SX(2498)
                          SX(2500)    SX(2516)    SX(2520)    SX(2575)
                          SX(2590)    SX(2658)    SX(2720)    SX(2725)
                          SX(2773)    SX(2789)    SX(2793)    SX(2849)
                          SX(2851)    SX(2931)    SX(3007)    SX(3009)
                          SX(3091)    SX(3092)    SX(3321)    SX(3403)
                          SX(3637)    SX(3741)    SX(3822)    SX(3978)
                          SX(4053)    SX(4068)    SX(4143)    SX(4156)
                          SX(4302)    SX(4303)    SX(4490)    SX(4509)
                          SX(4586)    SX(4681)    SX(4683)    SX(4880)
                          SX(4881)    SX(4883)    SX(4904)    SX(5096)
                          SX(5275)    SX(5376)    SX(5727)    SX(5837)
                          SX(5951)    SX(6176)    SX(7016)    SX(7031)
                          SX(7154)    SX(7274)    SX(7377)    SX(7497)
                          SX(7501)    SX(7802)    SX(7817)    SX(8057)
                          SX(8199)    SX(8322)    SX(8325)    SX(8693)
                          SX(8791)    SX(12872)   SX(12873)   SX(13025)
                          SX(13206)   SX(13207)   SX(13317)   SX(13497)
                          SX(13669)   SX(13780)   SX(13893)   SX(14082)
                          SX(14914)   SX(15222)   SX(15801)   SX(15997)
                          SX(16117)   SX(16484)   SX(16485)   SX(16688)
                          SX(16689)   SX(16980)   SX(18718)   SX(20187)
                          SX(20188)   SX(20604)   SX(20605)   SX(20829)
                          SX(21778)   SX(22347)   SX(23705)   SX(24447)
                          SX(26547)   SX(28813)""",
                site_density=2.72e-09,
                phases="gas",
          reactions='surface1-*',
                initial_state=state(temperature=300.0, pressure=OneAtm))

#-------------------------------------------------------------------------------
# Element data
#-------------------------------------------------------------------------------

element(symbol=u'X', atomic_mass=195.083)
element(symbol=u'Ci', atomic_mass=13.003)
element(symbol=u'D', atomic_mass=2.014)
element(symbol=u'Oi', atomic_mass=18.0)
element(symbol=u'T', atomic_mass=3.016)
#-------------------------------------------------------------------------------
# Species data
#-------------------------------------------------------------------------------

species(name=u'n-heptane',
        atoms='H:16 C:7',
        thermo=(NASA([100.00, 1262.73],
                     [-2.91681405E-03,  7.69373649E-02, -3.48025563E-05,
                       1.86095180E-09,  2.01573617E-12, -2.57829342E+04,
                       3.00312148E+01]),
                NASA([1262.73, 5000.00],
                     [ 1.38377915E+01,  4.85945016E-02, -1.95474548E-05,
                       3.52837178E-09, -2.39064676E-13, -3.05141556E+04,
                      -4.48642836E+01])))

species(name=u'Ar',
        atoms='Ar:1',
        thermo=(NASA([200.00, 1000.00],
                     [ 2.50000000E+00,  0.00000000E+00,  0.00000000E+00,
                       0.00000000E+00,  0.00000000E+00, -7.45375000E+02,
                       4.37967000E+00]),
                NASA([1000.00, 6000.00],
                     [ 2.50000000E+00,  0.00000000E+00,  0.00000000E+00,
                       0.00000000E+00,  0.00000000E+00, -7.45375000E+02,
                       4.37967000E+00])))

species(name=u'He',
        atoms='He:1',
        thermo=(NASA([200.00, 1000.00],
                     [ 2.50000000E+00,  0.00000000E+00,  0.00000000E+00,
                       0.00000000E+00,  0.00000000E+00, -7.45375000E+02,
                       9.28724000E-01]),
                NASA([1000.00, 6000.00],
                     [ 2.50000000E+00,  0.00000000E+00,  0.00000000E+00,
                       0.00000000E+00,  0.00000000E+00, -7.45375000E+02,
                       9.28724000E-01])))

species(name=u'Ne',
        atoms='Ne:1',
        thermo=(NASA([200.00, 1000.00],
                     [ 2.50000000E+00,  0.00000000E+00,  0.00000000E+00,
                       0.00000000E+00,  0.00000000E+00, -7.45375000E+02,
                       3.35532000E+00]),
                NASA([1000.00, 6000.00],
                     [ 2.50000000E+00,  0.00000000E+00,  0.00000000E+00,
                       0.00000000E+00,  0.00000000E+00, -7.45375000E+02,
                       3.35532000E+00])))

species(name=u'N2',
        atoms='N:2',
        thermo=(NASA([200.00, 1000.00],
                     [ 3.53101000E+00, -1.23661000E-04, -5.02999000E-07,
                       2.43531000E-09, -1.40881000E-12, -1.04698000E+03,
                       2.96747000E+00]),
                NASA([1000.00, 6000.00],
                     [ 2.95258000E+00,  1.39690000E-03, -4.92632000E-07,
                       7.86010000E-11, -4.60755000E-15, -9.23949000E+02,
                       5.87189000E+00])))

species(name=u'C2H4(2)',
        atoms='H:4 C:2',
        thermo=(NASA([100.00, 979.36],
                     [ 3.97471606E+00, -4.75844285E-03,  4.16783770E-05,
                      -4.51392516E-08,  1.54224761E-11,  4.91540746E+03,
                       3.62430844E+00]),
                NASA([979.36, 5000.00],
                     [ 3.55660610E+00,  1.10627464E-02, -4.17019079E-06,
                       7.85586770E-10, -5.70060829E-14,  4.32046489E+03,
                       2.17719479E+00])))

species(name=u'C4H8-1(3)',
        atoms='H:8 C:4',
        thermo=(NASA([100.00, 1007.28],
                     [ 2.58772906E+00,  2.32777969E-02,  1.93412349E-05,
                      -3.55496333E-08,  1.36906009E-11, -1.91872926E+03,
                       1.45750618E+01]),
                NASA([1007.28, 5000.00],
                     [ 7.20517168E+00,  2.36361568E-02, -9.03150028E-06,
                       1.65392666E-09, -1.16019260E-13, -3.79733937E+03,
                      -1.24426257E+01])))

species(name=u'C4H8-2(4)',
        atoms='H:8 C:4',
        thermo=(NASA([100.00, 1157.79],
                     [ 2.51998327E+00,  2.76812799E-02,  9.43783469E-07,
                      -1.25009101E-08,  4.67144666E-12, -3.34374767E+03,
                       1.30195623E+01]),
                NASA([1157.79, 5000.00],
                     [ 6.04225708E+00,  2.60072350E-02, -1.04843374E-05,
                       1.90880922E-09, -1.30600505E-13, -4.86276511E+03,
                      -7.52715109E+00])))

species(name=u'H2(68)',
        atoms='H:2',
        thermo=(NASA([100.00, 1959.08],
                     [ 3.43536412E+00,  2.12710353E-04, -2.78625043E-07,
                       3.40267167E-10, -7.76031998E-14, -1.03135984E+03,
                      -3.90841732E+00]),
                NASA([1959.08, 5000.00],
                     [ 2.78816583E+00,  5.87640942E-04,  1.59010417E-07,
                      -5.52739026E-11,  4.34310984E-15, -5.96144270E+02,
                       1.12732655E-01])))

species(name=u'C4H10(117)',
        atoms='H:10 C:4',
        thermo=(NASA([100.00, 1147.60],
                     [ 2.16918413E+00,  3.43904632E-02, -1.61564236E-06,
                      -1.30726562E-08,  5.17350451E-12, -1.72505136E+04,
                       1.46546701E+01]),
                NASA([1147.60, 5000.00],
                     [ 6.78903089E+00,  3.03598162E-02, -1.21262050E-05,
                       2.19945025E-09, -1.50289312E-13, -1.91057969E+04,
                      -1.17329103E+01])))

species(name=u'C6H14(234)',
        atoms='H:14 C:6',
        thermo=(NASA([100.00, 1048.16],
                     [ 8.83603407E-01,  5.70449582E-02, -2.15511769E-06,
                      -2.85512365E-08,  1.26618641E-11, -2.27982664E+04,
                       2.50352381E+01]),
                NASA([1048.16, 5000.00],
                     [ 1.11354266E+01,  4.25244017E-02, -1.65829595E-05,
                       3.01864905E-09, -2.09013581E-13, -2.62988561E+04,
                      -3.13529752E+01])))

species(name=u'C5H12(242)',
        atoms='H:12 C:5',
        thermo=(NASA([100.00, 1083.72],
                     [ 1.61174582E+00,  4.32467983E-02,  5.74950528E-06,
                      -2.75134571E-08,  1.08080045E-11, -2.00565292E+04,
                       1.98944429E+01]),
                NASA([1083.72, 5000.00],
                     [ 8.53683820E+00,  3.80814435E-02, -1.53303035E-05,
                       2.81977580E-09, -1.95507768E-13, -2.27551513E+04,
                      -1.95975419E+01])))

species(name=u'C6H14(258)',
        atoms='H:14 C:6',
        thermo=(NASA([100.00, 1237.11],
                     [ 9.36204265E-01,  5.80630250E-02, -1.05197660E-05,
                      -1.36320323E-08,  5.73438090E-12, -2.34249411E+04,
                       2.40002576E+01]),
                NASA([1237.11, 5000.00],
                     [ 1.03159905E+01,  4.66440696E-02, -1.96015321E-05,
                       3.61730433E-09, -2.48224262E-13, -2.71926741E+04,
                      -2.90957696E+01])))

species(name=u'C5H12(265)',
        atoms='H:12 C:5',
        thermo=(NASA([100.00, 1035.89],
                     [ 1.72369892E+00,  4.01626686E-02,  1.63603121E-05,
                      -3.88326196E-08,  1.49780300E-11, -2.08560016E+04,
                       1.91510657E+01]),
                NASA([1035.89, 5000.00],
                     [ 7.87936773E+00,  3.91979316E-02, -1.52647178E-05,
                       2.77213157E-09, -1.91665486E-13, -2.33548825E+04,
                      -1.66693711E+01])))

species(name=u'C6H14(283)',
        atoms='H:14 C:6',
        thermo=(NASA([100.00, 1002.79],
                     [ 9.62511884E-01,  5.35099673E-02,  1.32037900E-05,
                      -4.70268617E-08,  1.98557427E-11, -2.36936864E+04,
                       2.41377511E+01]),
                NASA([1002.79, 5000.00],
                     [ 1.14867705E+01,  4.22488291E-02, -1.59010927E-05,
                       2.87000033E-09, -1.99356317E-13, -2.73489440E+04,
                      -3.43661848E+01])))

species(name=u'C6H14(307)',
        atoms='H:14 C:6',
        thermo=(NASA([100.00, 999.60],
                     [ 1.13914864E+00,  5.18713751E-02,  1.51948225E-05,
                      -4.44277431E-08,  1.80491646E-11, -2.48256356E+04,
                       2.08096782E+01]),
                NASA([999.60, 5000.00],
                     [ 8.28885191E+00,  4.86579196E-02, -1.80934696E-05,
                       3.19040633E-09, -2.16940675E-13, -2.75238301E+04,
                      -2.00273110E+01])))

species(name=u'C5H12(315)',
        atoms='H:12 C:5',
        thermo=(NASA([100.00, 994.90],
                     [ 1.78043690E+00,  4.02405014E-02,  1.84305757E-05,
                      -4.04130738E-08,  1.57367475E-11, -2.25997935E+04,
                       1.41664911E+01]),
                NASA([994.90, 5000.00],
                     [ 6.04373990E+00,  4.30677415E-02, -1.59374218E-05,
                       2.78956119E-09, -1.88435823E-13, -2.44363395E+04,
                      -1.13461866E+01])))

species(name=u'C7H16(340)',
        atoms='H:16 C:7',
        thermo=(NASA([100.00, 1061.43],
                     [ 3.06074192E-02,  7.21522684E-02, -9.30982935E-06,
                      -3.08471494E-08,  1.45137215E-11, -2.75130205E+04,
                       2.65172733E+01]),
                NASA([1061.43, 5000.00],
                     [ 1.51223127E+01,  4.71509266E-02, -1.90189712E-05,
                       3.54030946E-09, -2.48611077E-13, -3.25121706E+04,
                      -5.56486209E+01])))

species(name=u'C7H16(368)',
        atoms='H:16 C:7',
        thermo=(NASA([100.00, 1029.26],
                     [ 9.78185888E-02,  6.90196312E-02,  2.74200925E-06,
                      -4.55183582E-08,  2.02289188E-11, -2.77960873E+04,
                       2.53006933E+01]),
                NASA([1029.26, 5000.00],
                     [ 1.56960840E+01,  4.58727233E-02, -1.81350582E-05,
                       3.37574304E-09, -2.38601225E-13, -3.29919040E+04,
                      -6.00440255E+01])))

species(name=u'C6H14(384)',
        atoms='H:14 C:6',
        thermo=(NASA([100.00, 979.30],
                     [ 1.15761484E+00,  4.88425073E-02,  2.64137737E-05,
                      -6.01104569E-08,  2.45806956E-11, -2.37935343E+04,
                       2.21623322E+01]),
                NASA([979.30, 5000.00],
                     [ 1.04141051E+01,  4.37548510E-02, -1.59118175E-05,
                       2.82122166E-09, -1.94532762E-13, -2.71755416E+04,
                      -3.03122062E+01])))

species(name=u'C7H16(428)',
        atoms='H:16 C:7',
        thermo=(NASA([100.00, 1058.24],
                     [ 1.91141557E-01,  7.01355402E-02, -9.59838786E-06,
                      -2.78201475E-08,  1.31404368E-11, -2.67544868E+04,
                       2.87592153E+01]),
                NASA([1058.24, 5000.00],
                     [ 1.34327135E+01,  4.84569089E-02, -1.90870718E-05,
                       3.49343735E-09, -2.42554508E-13, -3.11457174E+04,
                      -4.33795342E+01])))

species(name=u'C7H16(490)',
        atoms='H:16 C:7',
        thermo=(NASA([100.00, 1058.24],
                     [ 1.91141557E-01,  7.01355402E-02, -9.59838786E-06,
                      -2.78201475E-08,  1.31404368E-11, -2.71570619E+04,
                       2.73729209E+01]),
                NASA([1058.24, 5000.00],
                     [ 1.34327135E+01,  4.84569089E-02, -1.90870718E-05,
                       3.49343735E-09, -2.42554508E-13, -3.15482926E+04,
                      -4.47658285E+01])))

species(name=u'C7H16(519)',
        atoms='H:16 C:7',
        thermo=(NASA([100.00, 1120.69],
                     [ 1.06339491E-01,  7.34420479E-02, -2.20939297E-05,
                      -1.28197435E-08,  7.39373087E-12, -2.64706183E+04,
                       2.93479113E+01]),
                NASA([1120.69, 5000.00],
                     [ 1.31589528E+01,  4.92569317E-02, -1.97080319E-05,
                       3.59805544E-09, -2.47725029E-13, -3.08030385E+04,
                      -4.13873017E+01])))

species(name=u'C7H16(581)',
        atoms='H:16 C:7',
        thermo=(NASA([100.00, 1120.69],
                     [ 1.06339491E-01,  7.34420479E-02, -2.20939297E-05,
                      -1.28197435E-08,  7.39373087E-12, -2.60680432E+04,
                       3.00410584E+01]),
                NASA([1120.69, 5000.00],
                     [ 1.31589528E+01,  4.92569317E-02, -1.97080319E-05,
                       3.59805544E-09, -2.47725029E-13, -3.04004633E+04,
                      -4.06941546E+01])))

species(name=u'X(1)',
        atoms='X:1',
        thermo=(NASA([100.00, 1554.80],
                     [ 7.10139498E-03, -4.25619522E-05,  8.98533016E-08,
                      -7.80193649E-11,  2.32465471E-14, -8.76101712E-01,
                      -3.11211229E-02]),
                NASA([1554.80, 5000.00],
                     [ 1.60299900E-01, -2.52235409E-04,  1.14181275E-07,
                      -1.21471653E-11,  3.85790025E-16, -7.08100885E+01,
                      -9.09527530E-01])))

species(name=u'HX(5)',
        atoms='H:1 X:1',
        thermo=(NASA([100.00, 952.91],
                     [-3.80965452E-01,  5.47228709E-03,  2.60912778E-06,
                      -9.64961980E-09,  4.63946753E-12, -7.19163862E+02,
                       1.01725550E+00]),
                NASA([952.91, 5000.00],
                     [ 2.80339655E+00, -5.41047017E-04,  4.99507978E-07,
                      -7.54963647E-11,  3.06772366E-15, -1.65991328E+03,
                      -1.59436787E+01])))

species(name=u'C2H3X(37)',
        atoms='H:3 C:2 X:1',
        thermo=(NASA([100.00, 928.62],
                     [ 3.83091018E+00, -8.76381562E-03,  6.97956896E-05,
                      -8.67969174E-08,  3.33218121E-11, -4.92724095E+03,
                      -1.81151753E+01]),
                NASA([928.62, 5000.00],
                     [ 8.78054562E+00,  1.92497720E-03,  8.25825014E-07,
                      -1.63749818E-10,  5.71728318E-15, -7.22664407E+03,
                      -4.90588618E+01])))

species(name=u'allylX(38)',
        atoms='H:5 C:3 X:1',
        thermo=(NASA([100.00, 937.34],
                     [ 3.44148119E+00, -3.47700003E-03,  8.25933681E-05,
                      -1.05556823E-07,  4.04445066E-11, -8.46907908E+03,
                      -6.88846669E+00]),
                NASA([937.34, 5000.00],
                     [ 9.98148902E+00,  8.92268754E-03, -1.75442587E-06,
                       3.12285771E-10, -2.84156572E-14, -1.14658767E+04,
                      -4.74626902E+01])))

species(name=u'CH3X(39)',
        atoms='H:3 C:1 X:1',
        thermo=(NASA([100.00, 848.30],
                     [-1.21090496E+00,  2.92390681E-02, -4.49011079E-05,
                       3.86009808E-08, -1.30361041E-11, -1.26477576E+04,
                       6.80939750E+00]),
                NASA([848.30, 5000.00],
                     [ 1.62290877E+00,  1.12987268E-02, -5.08316908E-06,
                       9.46833581E-10, -6.42885536E-14, -1.29638225E+04,
                      -5.42501059E+00])))

species(name=u'C2H5X(40)',
        atoms='H:5 C:2 X:1',
        thermo=(NASA([100.00, 803.81],
                     [-1.64625424E+00,  3.89626488E-02, -4.31128887E-05,
                       2.97076939E-08, -8.80222915E-12, -1.66314326E+04,
                       9.27323637E+00]),
                NASA([803.81, 5000.00],
                     [ 1.97598112E+00,  2.09382766E-02, -9.47916922E-06,
                       1.81392948E-09, -1.27206354E-13, -1.72137814E+04,
                      -7.41107956E+00])))

species(name=u'C4H7X(41)',
        atoms='H:7 C:4 X:1',
        thermo=(NASA([100.00, 971.02],
                     [ 2.64365035E+00,  1.79007589E-02,  4.24443189E-05,
                      -6.44028479E-08,  2.49593993E-11, -1.24257885E+04,
                      -6.69991651E+00]),
                NASA([971.02, 5000.00],
                     [ 9.25871667E+00,  2.04064152E-02, -7.39143670E-06,
                       1.37021231E-09, -9.94133357E-14, -1.51132726E+04,
                      -4.56426102E+01])))

species(name=u'C4H7X(42)',
        atoms='H:7 C:4 X:1',
        thermo=(NASA([100.00, 986.67],
                     [ 2.45798205E+00,  2.47217336E-02,  2.01285964E-05,
                      -4.02735564E-08,  1.62485845E-11, -4.02360146E+03,
                      -5.12991781E+00]),
                NASA([986.67, 5000.00],
                     [ 8.87898065E+00,  2.09043993E-02, -7.83851223E-06,
                       1.44076477E-09, -1.02346878E-13, -6.37195757E+03,
                      -4.15007572E+01])))

species(name=u'C4H7X(43)',
        atoms='H:7 C:4 X:1',
        thermo=(NASA([100.00, 965.06],
                     [ 2.56877619E+00,  1.97500674E-02,  3.72961301E-05,
                      -6.04017092E-08,  2.39989018E-11, -1.26972094E+04,
                      -8.56564322E+00]),
                NASA([965.06, 5000.00],
                     [ 9.89778724E+00,  1.86142959E-02, -6.38884453E-06,
                       1.17309353E-09, -8.55406646E-14, -1.54735006E+04,
                      -5.07182348E+01])))

species(name=u'C4H7X(44)',
        atoms='H:7 C:4 X:1',
        thermo=(NASA([100.00, 949.35],
                     [ 2.54254539E+00,  1.77389010E-02,  4.93877612E-05,
                      -7.72878178E-08,  3.10660019E-11, -1.14715761E+04,
                      -8.46783968E+00]),
                NASA([949.35, 5000.00],
                     [ 1.15220223E+01,  1.60005944E-02, -4.89823595E-06,
                       8.83972924E-10, -6.63710570E-14, -1.48031084E+04,
                      -5.98888028E+01])))

species(name=u'C3H5X(45)',
        atoms='H:5 C:3 X:1',
        thermo=(NASA([100.00, 939.06],
                     [ 3.23683359E+00,  3.73132320E-03,  6.01028900E-05,
                      -8.16245569E-08,  3.18536011E-11, -8.74048254E+03,
                      -1.35295467E+01]),
                NASA([939.06, 5000.00],
                     [ 9.70183185E+00,  9.48309646E-03, -2.25953763E-06,
                       3.98431327E-10, -3.27118882E-14, -1.14225115E+04,
                      -5.21282869E+01])))

species(name=u'C4H9X(64)',
        atoms='H:9 C:4 X:1',
        thermo=(NASA([100.00, 1009.34],
                     [ 2.45382734E+00,  2.40994657E-02,  3.11010256E-05,
                      -4.95699577E-08,  1.85293661E-11, -2.07695628E+04,
                      -3.52847415E+00]),
                NASA([1009.34, 5000.00],
                     [ 7.52084135E+00,  2.82413531E-02, -1.10515535E-05,
                       2.04772333E-09, -1.44617914E-13, -2.30262843E+04,
                      -3.41331625E+01])))

species(name=u'C4H9X(65)',
        atoms='H:9 C:4 X:1',
        thermo=(NASA([100.00, 993.09],
                     [ 2.22649262E+00,  2.86530428E-02,  2.37814781E-05,
                      -4.60601877E-08,  1.82913065E-11, -1.94865479E+04,
                      -3.55141667E+00]),
                NASA([993.09, 5000.00],
                     [ 9.09063018E+00,  2.59568873E-02, -9.83403420E-06,
                       1.80637207E-09, -1.27731480E-13, -2.20802693E+04,
                      -4.28140480E+01])))

species(name=u'C2H2X(70)',
        atoms='H:2 C:2 X:1',
        thermo=(NASA([100.00, 1146.89],
                     [-1.35665997E+00,  2.85338019E-02, -3.11240758E-05,
                       1.70134067E-08, -3.63322671E-12, -1.54029891E+04,
                       3.79543665E+00]),
                NASA([1146.89, 5000.00],
                     [ 4.86807469E+00,  6.82428196E-03, -2.73110334E-06,
                       5.09415334E-10, -3.57467832E-14, -1.68308353E+04,
                      -2.70885611E+01])))

species(name=u'CH2X(74)',
        atoms='H:2 C:1 X:1',
        thermo=(NASA([100.00, 1199.82],
                     [-1.02006594E+00,  2.03778552E-02, -2.17291076E-05,
                       1.15868543E-08, -2.38469979E-12, -1.34072078E+04,
                       2.99160459E+00]),
                NASA([1199.82, 5000.00],
                     [ 3.89285483E+00,  3.99892281E-03, -1.25227942E-06,
                       2.09081361E-10, -1.39642489E-14, -1.45861267E+04,
                      -2.16053707E+01])))

species(name=u'C2H4X(84)',
        atoms='H:4 C:2 X:1',
        thermo=(NASA([100.00, 922.92],
                     [-1.51744559E+00,  3.54364794E-02, -3.81057246E-05,
                       2.35708696E-08, -6.09814448E-12, -1.85156739E+04,
                       5.77183816E+00]),
                NASA([922.92, 5000.00],
                     [ 2.83446173E+00,  1.65755797E-02, -7.45248059E-06,
                       1.42932264E-09, -1.00637720E-13, -1.93189907E+04,
                      -1.48746526E+01])))

species(name=u'C4H7X(95)',
        atoms='H:7 C:4 X:1',
        thermo=(NASA([100.00, 947.75],
                     [ 2.86440387E+00,  8.12954614E-03,  7.59606536E-05,
                      -1.03618267E-07,  4.00694538E-11, -1.24069450E+04,
                      -2.40038485E+00]),
                NASA([947.75, 5000.00],
                     [ 1.10489656E+01,  1.63914163E-02, -4.86280875E-06,
                       8.89632629E-10, -6.85128174E-14, -1.58807612E+04,
                      -5.15890409E+01])))

species(name=u'C3H5X(107)',
        atoms='H:5 C:3 X:1',
        thermo=(NASA([100.00, 946.02],
                     [ 3.27693369E+00,  3.84253259E-03,  5.69854034E-05,
                      -7.61339325E-08,  2.92928923E-11, -1.05279319E+04,
                      -1.34283913E+01]),
                NASA([946.02, 5000.00],
                     [ 8.81692983E+00,  1.11131640E-02, -3.21294654E-06,
                       5.86623487E-10, -4.55861620E-14, -1.29496460E+04,
                      -4.71077607E+01])))

species(name=u'SX(110)',
        atoms='H:13 C:6 X:1',
        thermo=(NASA([100.00, 1130.02],
                     [ 1.07508654E+00,  5.48320242E-02, -5.85499030E-06,
                      -1.87602461E-08,  7.94175434E-12, -2.65632436E+04,
                       6.68454494E+00]),
                NASA([1130.02, 5000.00],
                     [ 9.23587213E+00,  4.49494152E-02, -1.79636149E-05,
                       3.26621012E-09, -2.23874450E-13, -2.96210074E+04,
                      -3.90529659E+01])))

species(name=u'SX(111)',
        atoms='H:13 C:6 X:1',
        thermo=(NASA([100.00, 1104.49],
                     [ 9.11736944E-01,  5.71186337E-02, -4.42064989E-06,
                      -2.31827364E-08,  9.89591048E-12, -2.59008411E+04,
                       4.93075254E+00]),
                NASA([1104.49, 5000.00],
                     [ 1.03931710E+01,  4.50091930E-02, -1.81629728E-05,
                       3.33345850E-09, -2.30373441E-13, -2.93510902E+04,
                      -4.78917391E+01])))

species(name=u'SX(112)',
        atoms='H:13 C:6 X:1',
        thermo=(NASA([100.00, 1210.11],
                     [ 1.10826561E+00,  5.37308809E-02, -6.37927534E-07,
                      -2.23970084E-08,  8.32635868E-12, -2.71766934E+04,
                       5.70647071E+00]),
                NASA([1210.11, 5000.00],
                     [ 9.93913033E+00,  4.70609403E-02, -2.02853103E-05,
                       3.80581060E-09, -2.64092883E-13, -3.09628643E+04,
                      -4.53945281E+01])))

species(name=u'CHX(157)',
        atoms='H:1 C:1 X:1',
        thermo=(NASA([100.00, 1596.82],
                     [-9.66375239E-01,  1.63179003E-02, -1.75392280E-05,
                       8.64095863E-09, -1.55501450E-12, -2.29370162E+04,
                       2.54982370E+00]),
                NASA([1596.82, 5000.00],
                     [ 4.21481268E+00,  2.18383120E-04,  5.15662242E-07,
                      -1.20800791E-10,  8.35331125E-15, -2.41938316E+04,
                      -2.36254632E+01])))

species(name=u'SX(199)',
        atoms='H:11 C:5 X:1',
        thermo=(NASA([100.00, 1193.94],
                     [ 1.82517245E+00,  4.07425190E-02,  3.21344477E-06,