units(length='cm', time='s', quantity='mol', act_energy='kcal/mol')

ideal_gas(name='gas',
          elements="H D T C Ci O Oi N Ne Ar He Si S Cl X",
          species="""n-heptane   Ar          He          Ne
                     N2          C2H4(2)     C4H8-1(3)   C4H8-2(4)
                     C4H6(7)     H2(68)      C2H6(110)   C4H10(112)
                     C6H10(118)  CH4(265)""",
          reactions='gas-*',
          initial_state=state(temperature=300.0, pressure=OneAtm))

ideal_interface(name='surface1',
                elements="H D T C Ci O Oi N Ne Ar He Si S Cl X",
                species="""X(1)        HX(5)       C2H3X(37)   CH3X(39)
                          C2H5X(40)   C4H7X(41)   C4H7X(42)   C4H7X(43)
                          C4H7X(44)   C4H9X(64)   C4H9X(65)   C2H2X(70)
                          C4H5X(80)   C4H5X(81)   C6H9X(97)   C6H9X(98)
                          CH2X(105)   C2H4X(106)  C4H6X(125)  C4H7X(138)
                          C4H6X(165)  C6H9X(191)  C6H9X(192)  C6H9X(249)
                          C6H9X(267)  C5H7X(270)  C6H9X(271)  C6H9X(296)
                          C6H9X(315)  C6H8X(362)  C5H9X(392)  CHX(407)
                          C5H9X(411)  C4H5X(433)  C6H9X(434)  C5H9X(435)
                          SX(442)     C6H8X(453)  C5H8X(454)  SX(461)
                          C2H3X(472)  C6H9X(479)  C6H7X(541)  C6H9X(658)
                          SX(771)     C6H9X(810)  C6H9X(811)  C3H3X(849)
                          SX(851)     C5H9X(996)  SX(1027)    SX(1057)
                          SX(1059)    SX(1061)    SX(1062)    SX(1075)
                          SX(1086)    SX(1107)    SX(1109)    SX(1111)
                          SX(1112)    SX(1131)    SX(1135)    SX(1137)
                          SX(1139)    SX(1141)    SX(1160)    SX(1266)
                          SX(1282)    SX(1293)    SX(1406)    SX(1414)
                          SX(1591)    SX(1592)    SX(1594)    SX(1596)
                          SX(1597)    SX(1622)    SX(1653)    SX(1657)
                          SX(1658)    SX(1725)    SX(1726)    SX(1850)
                          SX(1851)    SX(1916)    SX(1917)    SX(2040)
                          SX(2041)    SX(2495)    SX(2532)    SX(2558)
                          SX(2559)    SX(2561)    SX(2588)    SX(2632)
                          SX(2633)    SX(2636)    SX(2663)    SX(2668)
                          SX(2689)    SX(2883)    SX(2885)    SX(2909)
                          SX(3047)    SX(3072)    SX(3078)    SX(3136)
                          SX(3279)    SX(3573)    SX(3737)    SX(4004)
                          SX(4275)    SX(4311)    SX(4359)    SX(4396)
                          SX(4473)    SX(4474)    SX(4684)    SX(4687)
                          SX(4688)    SX(4716)    SX(4796)    SX(4798)
                          SX(4833)    SX(5160)    SX(5258)    SX(5259)
                          SX(5260)    SX(5263)    SX(5290)    SX(5365)
                          SX(5366)    SX(5369)    SX(5396)    SX(5401)
                          SX(5422)    SX(5491)    SX(5492)    SX(5522)
                          SX(5933)    SX(5936)    SX(5964)    SX(6411)
                          SX(6412)    SX(6441)    SX(6526)    SX(6527)
                          SX(7286)    SX(7408)    SX(7438)    SX(7531)
                          SX(7796)    SX(7797)    SX(7798)    SX(8050)
                          SX(8868)    SX(8869)    SX(8871)    SX(8897)
                          SX(9001)    SX(9002)    SX(9005)    SX(9031)
                          SX(9036)    SX(9057)    SX(9582)    SX(9585)
                          SX(9617)    SX(10042)   SX(10185)   SX(10488)
                          SX(10518)   SX(10766)   SX(10795)   SX(11686)
                          SX(11687)   SX(11827)   SX(11828)   SX(11829)
                          SX(11830)   SX(11859)   SX(11983)   SX(11984)
                          SX(12157)   SX(12158)   SX(12315)   SX(12316)
                          SX(12474)   SX(12633)   SX(12634)   SX(12937)
                          SX(12938)   SX(12939)   SX(12942)   SX(12969)
                          SX(13757)   SX(13758)   SX(13923)   SX(13924)
                          SX(15709)   SX(15887)   SX(15888)   SX(16263)
                          SX(16264)   SX(16265)   SX(16445)   SX(17179)
                          SX(17180)   SX(18469)   SX(18666)   SX(19061)
                          SX(19471)   SX(19472)   SX(19473)   SX(19474)
                          SX(21276)   SX(21484)   SX(21690)   SX(22122)
                          SX(23591)   SX(23592)   SX(23627)   SX(23672)
                          SX(23698)   SX(23825)   SX(23826)   SX(24739)
                          SX(24742)   SX(24774)   SX(25692)   SX(25693)
                          SX(25694)   SX(25921)   SX(25922)   SX(25923)
                          SX(26895)   SX(26896)   SX(26897)   SX(28061)
                          SX(29746)   SX(29961)   SX(29962)   SX(29963)
                          SX(30212)   SX(30455)   SX(30456)   SX(31490)
                          SX(31491)   SX(31492)   SX(31743)   SX(32000)
                          SX(32952)   SX(32953)   SX(33210)   SX(33211)
                          SX(35352)   SX(35620)   SX(35621)""",
                site_density=2.72e-09,
                phases="gas",
          reactions='surface1-*',
                initial_state=state(temperature=300.0, pressure=OneAtm))

#-------------------------------------------------------------------------------
# Element data
#-------------------------------------------------------------------------------

element(symbol=u'X', atomic_mass=195.083)
element(symbol=u'Ci', atomic_mass=13.003)
element(symbol=u'D', atomic_mass=2.014)
element(symbol=u'Oi', atomic_mass=18.0)
element(symbol=u'T', atomic_mass=3.016)
#-------------------------------------------------------------------------------
# Species data
#-------------------------------------------------------------------------------

species(name=u'n-heptane',
        atoms='H:16 C:7',
        thermo=(NASA([100.00, 1262.73],
                     [-2.91681405E-03,  7.69373649E-02, -3.48025563E-05,
                       1.86095180E-09,  2.01573617E-12, -2.57829342E+04,
                       3.00312148E+01]),
                NASA([1262.73, 5000.00],
                     [ 1.38377915E+01,  4.85945016E-02, -1.95474548E-05,
                       3.52837178E-09, -2.39064676E-13, -3.05141556E+04,
                      -4.48642836E+01])))

species(name=u'Ar',
        atoms='Ar:1',
        thermo=(NASA([200.00, 1000.00],
                     [ 2.50000000E+00,  0.00000000E+00,  0.00000000E+00,
                       0.00000000E+00,  0.00000000E+00, -7.45375000E+02,
                       4.37967000E+00]),
                NASA([1000.00, 6000.00],
                     [ 2.50000000E+00,  0.00000000E+00,  0.00000000E+00,
                       0.00000000E+00,  0.00000000E+00, -7.45375000E+02,
                       4.37967000E+00])))

species(name=u'He',
        atoms='He:1',
        thermo=(NASA([200.00, 1000.00],
                     [ 2.50000000E+00,  0.00000000E+00,  0.00000000E+00,
                       0.00000000E+00,  0.00000000E+00, -7.45375000E+02,
                       9.28724000E-01]),
                NASA([1000.00, 6000.00],
                     [ 2.50000000E+00,  0.00000000E+00,  0.00000000E+00,
                       0.00000000E+00,  0.00000000E+00, -7.45375000E+02,
                       9.28724000E-01])))

species(name=u'Ne',
        atoms='Ne:1',
        thermo=(NASA([200.00, 1000.00],
                     [ 2.50000000E+00,  0.00000000E+00,  0.00000000E+00,
                       0.00000000E+00,  0.00000000E+00, -7.45375000E+02,
                       3.35532000E+00]),
                NASA([1000.00, 6000.00],
                     [ 2.50000000E+00,  0.00000000E+00,  0.00000000E+00,
                       0.00000000E+00,  0.00000000E+00, -7.45375000E+02,
                       3.35532000E+00])))

species(name=u'N2',
        atoms='N:2',
        thermo=(NASA([200.00, 1000.00],
                     [ 3.53101000E+00, -1.23661000E-04, -5.02999000E-07,
                       2.43531000E-09, -1.40881000E-12, -1.04698000E+03,
                       2.96747000E+00]),
                NASA([1000.00, 6000.00],
                     [ 2.95258000E+00,  1.39690000E-03, -4.92632000E-07,
                       7.86010000E-11, -4.60755000E-15, -9.23949000E+02,
                       5.87189000E+00])))

species(name=u'C2H4(2)',
        atoms='H:4 C:2',
        thermo=(NASA([100.00, 979.36],
                     [ 3.97471606E+00, -4.75844285E-03,  4.16783770E-05,
                      -4.51392516E-08,  1.54224761E-11,  4.91540746E+03,
                       3.62430844E+00]),
                NASA([979.36, 5000.00],
                     [ 3.55660610E+00,  1.10627464E-02, -4.17019079E-06,
                       7.85586770E-10, -5.70060829E-14,  4.32046489E+03,
                       2.17719479E+00])))

species(name=u'C4H8-1(3)',
        atoms='H:8 C:4',
        thermo=(NASA([100.00, 1007.28],
                     [ 2.58772906E+00,  2.32777969E-02,  1.93412349E-05,
                      -3.55496333E-08,  1.36906009E-11, -1.91872926E+03,
                       1.45750618E+01]),
                NASA([1007.28, 5000.00],
                     [ 7.20517168E+00,  2.36361568E-02, -9.03150028E-06,
                       1.65392666E-09, -1.16019260E-13, -3.79733937E+03,
                      -1.24426257E+01])))

species(name=u'C4H8-2(4)',
        atoms='H:8 C:4',
        thermo=(NASA([100.00, 1157.79],
                     [ 2.51998327E+00,  2.76812799E-02,  9.43783469E-07,
                      -1.25009101E-08,  4.67144666E-12, -3.34374767E+03,
                       1.30195623E+01]),
                NASA([1157.79, 5000.00],
                     [ 6.04225708E+00,  2.60072350E-02, -1.04843374E-05,
                       1.90880922E-09, -1.30600505E-13, -4.86276511E+03,
                      -7.52715109E+00])))

species(name=u'C4H6(7)',
        atoms='H:6 C:4',
        thermo=(NASA([100.00, 946.05],
                     [ 2.80599310E+00,  1.02584471E-02,  6.17260255E-05,
                      -9.01642687E-08,  3.59116961E-11,  1.16584972E+04,
                       1.20621434E+01]),
                NASA([946.05, 5000.00],
                     [ 1.24693720E+01,  1.00553901E-02, -2.41206872E-06,
                       4.57077303E-10, -3.93160571E-14,  8.01077795E+03,
                      -4.36374720E+01])))

species(name=u'H2(68)',
        atoms='H:2',
        thermo=(NASA([100.00, 1959.08],
                     [ 3.43536412E+00,  2.12710353E-04, -2.78625043E-07,
                       3.40267167E-10, -7.76031998E-14, -1.03135984E+03,
                      -3.90841732E+00]),
                NASA([1959.08, 5000.00],
                     [ 2.78816583E+00,  5.87640942E-04,  1.59010417E-07,
                      -5.52739026E-11,  4.34310984E-15, -5.96144270E+02,
                       1.12732655E-01])))

species(name=u'C2H6(110)',
        atoms='H:6 C:2',
        thermo=(NASA([100.00, 1012.42],
                     [ 3.72239291E+00,  1.65083841E-03,  3.44175530E-05,
                      -3.76858229E-08,  1.24450657E-11, -1.15575901E+04,
                       4.68247999E+00]),
                NASA([1012.42, 5000.00],
                     [ 2.82848257E+00,  1.73040568E-02, -6.73334245E-06,
                       1.23742024E-09, -8.65676410E-14, -1.19978080E+04,
                       5.93811707E+00])))

species(name=u'C4H10(112)',
        atoms='H:10 C:4',
        thermo=(NASA([100.00, 1147.60],
                     [ 2.16918413E+00,  3.43904632E-02, -1.61564236E-06,
                      -1.30726562E-08,  5.17350451E-12, -1.72505136E+04,
                       1.46546701E+01]),
                NASA([1147.60, 5000.00],
                     [ 6.78903089E+00,  3.03598162E-02, -1.21262050E-05,
                       2.19945025E-09, -1.50289312E-13, -1.91057969E+04,
                      -1.17329103E+01])))

species(name=u'C6H10(118)',
        atoms='H:10 C:6',
        thermo=(NASA([100.00, 1036.89],
                     [ 1.50874221E+00,  4.27939676E-02,  1.00407781E-05,
                      -3.76644958E-08,  1.56320088E-11,  7.74480595E+03,
                       2.33493905E+01]),
                NASA([1036.89, 5000.00],
                     [ 1.16601041E+01,  3.10397815E-02, -1.26024374E-05,
                       2.38495409E-09, -1.70150727E-13,  4.16633351E+03,
                      -3.30972272E+01])))

species(name=u'CH4(265)',
        atoms='H:4 C:1',
        thermo=(NASA([100.00, 1084.12],
                     [ 4.20541524E+00, -5.35557362E-03,  2.51123265E-05,
                      -2.13762843E-08,  5.97523937E-12, -1.01619433E+04,
                      -9.21279283E-01]),
                NASA([1084.12, 5000.00],
                     [ 9.08265721E-01,  1.14540858E-02, -4.57173828E-06,
                       8.29191671E-10, -5.66314895E-14, -9.71997444E+03,
                       1.39930944E+01])))

species(name=u'X(1)',
        atoms='X:1',
        thermo=(NASA([100.00, 1554.80],
                     [ 7.10139498E-03, -4.25619522E-05,  8.98533016E-08,
                      -7.80193649E-11,  2.32465471E-14, -8.76101712E-01,
                      -3.11211229E-02]),
                NASA([1554.80, 5000.00],
                     [ 1.60299900E-01, -2.52235409E-04,  1.14181275E-07,
                      -1.21471653E-11,  3.85790025E-16, -7.08100885E+01,
                      -9.09527530E-01])))

species(name=u'HX(5)',
        atoms='H:1 X:1',
        thermo=(NASA([100.00, 952.91],
                     [-3.80965452E-01,  5.47228709E-03,  2.60912778E-06,
                      -9.64961980E-09,  4.63946753E-12, -6.52141699E+03,
                       1.01725550E+00]),
                NASA([952.91, 5000.00],
                     [ 2.80339655E+00, -5.41047017E-04,  4.99507978E-07,
                      -7.54963647E-11,  3.06772366E-15, -7.46216641E+03,
                      -1.59436787E+01])))

species(name=u'C2H3X(37)',
        atoms='H:3 C:2 X:1',
        thermo=(NASA([100.00, 928.62],
                     [ 3.83091018E+00, -8.76381562E-03,  6.97956896E-05,
                      -8.67969174E-08,  3.33218121E-11,  8.75012182E+02,
                      -1.81151753E+01]),
                NASA([928.62, 5000.00],
                     [ 8.78054562E+00,  1.92497720E-03,  8.25825014E-07,
                      -1.63749818E-10,  5.71728318E-15, -1.42439094E+03,
                      -4.90588618E+01])))

species(name=u'CH3X(39)',
        atoms='H:3 C:1 X:1',
        thermo=(NASA([100.00, 848.30],
                     [-1.21090496E+00,  2.92390681E-02, -4.49011079E-05,
                       3.86009808E-08, -1.30361041E-11, -6.84550445E+03,
                       6.80939750E+00]),
                NASA([848.30, 5000.00],
                     [ 1.62290877E+00,  1.12987268E-02, -5.08316908E-06,
                       9.46833581E-10, -6.42885536E-14, -7.16156936E+03,
                      -5.42501059E+00])))

species(name=u'C2H5X(40)',
        atoms='H:5 C:2 X:1',
        thermo=(NASA([100.00, 803.81],
                     [-1.64625424E+00,  3.89626488E-02, -4.31128887E-05,
                       2.97076939E-08, -8.80222915E-12, -1.08291795E+04,
                       9.27323637E+00]),
                NASA([803.81, 5000.00],
                     [ 1.97598112E+00,  2.09382766E-02, -9.47916922E-06,
                       1.81392948E-09, -1.27206354E-13, -1.14115283E+04,
                      -7.41107956E+00])))

species(name=u'C4H7X(41)',
        atoms='H:7 C:4 X:1',
        thermo=(NASA([100.00, 971.02],
                     [ 2.64365035E+00,  1.79007589E-02,  4.24443189E-05,
                      -6.44028479E-08,  2.49593993E-11, -6.62353538E+03,
                      -6.69991651E+00]),
                NASA([971.02, 5000.00],
                     [ 9.25871667E+00,  2.04064152E-02, -7.39143670E-06,
                       1.37021231E-09, -9.94133357E-14, -9.31101951E+03,
                      -4.56426102E+01])))

species(name=u'C4H7X(42)',
        atoms='H:7 C:4 X:1',
        thermo=(NASA([100.00, 986.67],
                     [ 2.45798205E+00,  2.47217336E-02,  2.01285964E-05,
                      -4.02735564E-08,  1.62485845E-11,  1.77865167E+03,
                      -5.12991781E+00]),
                NASA([986.67, 5000.00],
                     [ 8.87898065E+00,  2.09043993E-02, -7.83851223E-06,
                       1.44076477E-09, -1.02346878E-13, -5.69704442E+02,
                      -4.15007572E+01])))

species(name=u'C4H7X(43)',
        atoms='H:7 C:4 X:1',
        thermo=(NASA([100.00, 965.06],
                     [ 2.56877619E+00,  1.97500674E-02,  3.72961301E-05,
                      -6.04017092E-08,  2.39989018E-11, -6.89495624E+03,
                      -8.56564322E+00]),
                NASA([965.06, 5000.00],
                     [ 9.89778724E+00,  1.86142959E-02, -6.38884453E-06,
                       1.17309353E-09, -8.55406646E-14, -9.67124745E+03,
                      -5.07182348E+01])))

species(name=u'C4H7X(44)',
        atoms='H:7 C:4 X:1',
        thermo=(NASA([100.00, 949.35],
                     [ 2.54254539E+00,  1.77389010E-02,  4.93877612E-05,
                      -7.72878178E-08,  3.10660019E-11, -5.66932294E+03,
                      -8.46783968E+00]),
                NASA([949.35, 5000.00],
                     [ 1.15220223E+01,  1.60005944E-02, -4.89823595E-06,
                       8.83972924E-10, -6.63710570E-14, -9.00085528E+03,
                      -5.98888028E+01])))

species(name=u'C4H9X(64)',
        atoms='H:9 C:4 X:1',
        thermo=(NASA([100.00, 1009.34],
                     [ 2.45382734E+00,  2.40994657E-02,  3.11010256E-05,
                      -4.95699577E-08,  1.85293661E-11, -1.49673097E+04,
                      -3.52847415E+00]),
                NASA([1009.34, 5000.00],
                     [ 7.52084135E+00,  2.82413531E-02, -1.10515535E-05,
                       2.04772333E-09, -1.44617914E-13, -1.72240312E+04,
                      -3.41331625E+01])))

species(name=u'C4H9X(65)',
        atoms='H:9 C:4 X:1',
        thermo=(NASA([100.00, 993.09],
                     [ 2.22649262E+00,  2.86530428E-02,  2.37814781E-05,
                      -4.60601877E-08,  1.82913065E-11, -1.36842948E+04,
                      -3.55141667E+00]),
                NASA([993.09, 5000.00],
                     [ 9.09063018E+00,  2.59568873E-02, -9.83403420E-06,
                       1.80637207E-09, -1.27731480E-13, -1.62780162E+04,
                      -4.28140480E+01])))

species(name=u'C2H2X(70)',
        atoms='H:2 C:2 X:1',
        thermo=(NASA([100.00, 1146.89],
                     [-1.35665997E+00,  2.85338019E-02, -3.11240758E-05,
                       1.70134067E-08, -3.63322671E-12, -3.79848280E+03,
                       3.79543665E+00]),
                NASA([1146.89, 5000.00],
                     [ 4.86807469E+00,  6.82428196E-03, -2.73110334E-06,
                       5.09415334E-10, -3.57467832E-14, -5.22632908E+03,
                      -2.70885611E+01])))

species(name=u'C4H5X(80)',
        atoms='H:5 C:4 X:1',
        thermo=(NASA([100.00, 936.52],
                     [ 2.68471723E+00,  1.36244496E-02,  5.32591849E-05,
                      -8.32912448E-08,  3.41499374E-11,  2.96824237E+03,
                      -1.06510487E+01]),
                NASA([936.52, 5000.00],
                     [ 1.29012266E+01,  8.96921861E-03, -1.71920076E-06,
                       2.89744517E-10, -2.58686364E-14, -6.54796577E+02,
                      -6.83963397E+01])))

species(name=u'C4H5X(81)',
        atoms='H:5 C:4 X:1',
        thermo=(NASA([100.00, 928.63],
                     [ 2.64232495E+00,  8.31109593E-03,  8.12146261E-05,
                      -1.21398701E-07,  4.98630759E-11,  8.15115112E+03,
                      -1.03932963E+01]),
                NASA([928.63, 5000.00],
                     [ 1.69490474E+01,  2.00818812E-03,  2.03468841E-06,
                      -4.02657023E-10,  1.85400094E-14,  3.10865675E+03,
                      -9.11990785E+01])))

species(name=u'C6H9X(97)',
        atoms='H:9 C:6 X:1',
        thermo=(NASA([100.00, 999.55],
                     [ 1.67673103E+00,  3.46229627E-02,  3.95069460E-05,
                      -7.18132776E-08,  2.83897957E-11,  3.37311965E+03,
                       1.40551907E+00]),
                NASA([999.55, 5000.00],
                     [ 1.32935266E+01,  2.82673556E-02, -1.11810126E-05,
                       2.16230262E-09, -1.59014467E-13, -9.54019229E+02,
                      -6.46621998E+01])))

species(name=u'C6H9X(98)',
        atoms='H:9 C:6 X:1',
        thermo=(NASA([100.00, 959.61],
                     [ 9.97316280E-01,  5.45668000E-02, -1.20062319E-05,
                      -2.57197904E-08,  1.47243152E-11,  1.01755110E+04,
                       4.10405037E+00]),
                NASA([959.61, 5000.00],
                     [ 1.47073597E+01,  2.48050721E-02, -8.29407345E-06,
                       1.44239761E-09, -1.00346470E-13,  6.28331060E+03,
                      -6.80438434E+01])))

species(name=u'CH2X(105)',
        atoms='H:2 C:1 X:1',
        thermo=(NASA([100.00, 1199.82],
                     [-1.02006594E+00,  2.03778552E-02, -2.17291076E-05,
                       1.15868543E-08, -2.38469979E-12, -1.80270158E+03,
                       2.99160459E+00]),
                NASA([1199.82, 5000.00],
                     [ 3.89285483E+00,  3.99892281E-03, -1.25227942E-06,
                       2.09081361E-10, -1.39642489E-14, -2.98162045E+03,
                      -2.16053707E+01])))

species(name=u'C2H4X(106)',
        atoms='H:4 C:2 X:1',
        thermo=(NASA([100.00, 922.92],
                     [-1.51744559E+00,  3.54364794E-02, -3.81057246E-05,
                       2.35708696E-08, -6.09814448E-12, -6.91116765E+03,
                       5.77183816E+00]),
                NASA([922.92, 5000.00],
                     [ 2.83446173E+00,  1.65755797E-02, -7.45248059E-06,
                       1.42932264E-09, -1.00637720E-13, -7.71448446E+03,
                      -1.48746526E+01])))

species(name=u'C4H6X(125)',
        atoms='H:6 C:4 X:1',
        thermo=(NASA([100.00, 1023.17],
                     [ 2.40014304E+00,  2.85396069E-02,  6.30695808E-07,
                      -1.80017615E-08,  8.10084072E-12,  1.23682871E+02,
                      -7.28045684E+00]),
                NASA([1023.17, 5000.00],
                     [ 8.63170834E+00,  1.90458818E-02, -7.24837716E-06,
                       1.33445662E-09, -9.39704208E-14, -1.92975554E+03,
                      -4.12900276E+01])))

species(name=u'C4H7X(138)',
        atoms='H:7 C:4 X:1',
        thermo=(NASA([100.00, 947.75],
                     [ 2.86440387E+00,  8.12954614E-03,  7.59606536E-05,
                      -1.03618267E-07,  4.00694538E-11, -6.60469188E+03,
                      -2.40038485E+00]),
                NASA([947.75, 5000.00],
                     [ 1.10489656E+01,  1.63914163E-02, -4.86280875E-06,
                       8.89632629E-10, -6.85128174E-14, -1.00785081E+04,
                      -5.15890409E+01])))

species(name=u'C4H6X(165)',
        atoms='H:6 C:4 X:1',
        thermo=(NASA([100.00, 948.80],
                     [ 2.81046852E+00,  9.73952375E-03,  7.48756446E-05,
                      -1.02011004E-07,  3.92852520E-11, -3.71417562E+03,
                      -5.80393637E+00]),
                NASA([948.80, 5000.00],
                     [ 1.04718799E+01,  1.91376172E-02, -5.90406857E-06,
                       1.06800075E-09, -8.00331345E-14, -7.04483917E+03,
                      -5.22537582E+01])))

species(name=u'C6H9X(191)',
        atoms='H:9 C:6 X:1',
        thermo=(NASA([100.00, 1007.64],
                     [ 1.27248302E+00,  4.84011712E-02, -1.75453614E-06,
                      -2.97801391E-08,  1.41252411E-11,  3.30045279E+03,
                       3.98937307E-01]),
                NASA([1007.64, 5000.00],
                     [ 1.28615791E+01,  2.84953040E-02, -1.09739062E-05,
                       2.02433889E-09, -1.43084350E-13, -3.60040768E+02,
                      -6.21745613E+01])))

species(name=u'C6H9X(192)',
        atoms='H:9 C:6 X:1',
        thermo=(NASA([100.00, 980.12],
                     [ 1.45601280E+00,  3.81349851E-02,  3.61687193E-05,
                      -7.42191955E-08,  3.07944994E-11,  3.88465057E+03,
                       9.50783533E-01]),
                NASA([980.12, 5000.00],
                     [ 1.55813957E+01,  2.40133265E-02, -8.83195758E-06,
                       1.69883903E-09, -1.26943264E-13, -9.74899306E+02,
                      -7.75775604E+01])))

species(name=u'C6H9X(249)',
        atoms='H:9 C:6 X:1',
        thermo=(NASA([100.00, 995.64],
                     [ 1.00158150E+00,  5.37831764E-02, -1.05077719E-05,
                      -2.52898569E-08,  1.36194364E-11,  9.65301784E+03,
                       4.73928304E+00]),
                NASA([995.64, 5000.00],
                     [ 1.48279675E+01,  2.56881420E-02, -9.53965888E-06,
                       1.75504791E-09, -1.24935257E-13,  5.53909289E+03,
                      -6.87379050E+01])))

species(name=u'C6H9X(267)',
        atoms='H:9 C:6 X:1',
        thermo=(NASA([100.00, 973.86],
                     [ 9.93837756E-01,  5.22731950E-02, -2.04237505E-06,
                      -3.72834276E-08,  1.87182448E-11,  1.87307778E+03,
                       7.46169215E-01]),
                NASA([973.86, 5000.00],
                     [ 1.59749061E+01,  2.35119815E-02, -8.21905871E-06,
                       1.49896743E-09, -1.07947310E-13, -2.59885373E+03,
                      -7.91107508E+01])))

species(name=u'C5H7X(270)',
        atoms='H:7 C:5 X:1',
        thermo=(NASA([100.00, 951.44],
                     [ 1.91708763E+00,  3.34363627E-02,  2.05629412E-05,
                      -5.16620647E-08,  2.27003145E-11, -2.68221034E+03,
                      -7.76831119E+00]),
                NASA([951.44, 5000.00],
                     [ 1.24634291E+01,  1.98022959E-02, -6.34957382E-06,
                       1.11415841E-09, -7.96792959E-14, -6.07878545E+03,
                      -6.54266576E+01])))

species(name=u'C6H9X(271)',
        atoms='H:9 C:6 X:1',
        thermo=(NASA([100.00, 973.86],
                     [ 9.93837756E-01,  5.22731950E-02, -2.04237505E-06,
                      -3.72834276E-08,  1.87182448E-11,  1.33060773E+03,
                       6.98148748E-01]),
                NASA([973.86, 5000.00],
                     [ 1.59749061E+01,  2.35119815E-02, -8.21905871E-06,
                       1.49896743E-09, -1.07947310E-13, -3.14132377E+03,
                      -7.91587712E+01])))

species(name=u'C6H9X(296)',
        atoms='H:9 C:6 X:1',
        thermo=(NASA([100.00, 960.31],
                     [ 1.65315479E+00,  3.22614868E-02,  5.56530615E-05,
                      -9.52638055E-08,  3.87091398E-11,  3.80665884E+03,
                       6.06729094E+00]),
                NASA([960.31, 5000.00],
                     [ 1.49560548E+01,  2.50865234E-02, -8.48414501E-06,
                       1.56734891E-09, -1.16111683E-13, -9.72462110E+02,
                      -6.91530921E+01])))

species(name=u'C6H9X(315)',
        atoms='H:9 C:6 X:1',
        thermo=(NASA([100.00, 1255.20],
                     [ 1.52447209E+00,  4.66103126E-02, -6.16097139E-06,
                      -1.35483363E-08,  5.32040290E-12, -7.97427249E+02,
                       6.56680419E-01]),
                NASA([1255.20, 5000.00],
                     [ 9.78683421E+00,  3.78121855E-02, -1.65981390E-05,
                       3.12279672E-09, -2.16338075E-13, -4.25270572E+03,
                      -4.65839356E+01])))

species(name=u'C6H8X(362)',
        atoms='H:8 C:6 X:1',
        thermo=(NASA([100.00, 950.30],
                     [ 1.28981119E+00,  3.91408006E-02,  4.76532365E-05,
                      -9.36877011E-08,  3.97975371E-11,  6.61911047E+03,
                       4.48759978E+00]),
                NASA([950.30, 5000.00],
                     [ 1.74347988E+01,  2.24051284E-02, -6.78125315E-06,
                       1.21940897E-09, -9.16052201E-14,  1.23775080E+03,
                      -8.47486143E+01])))

species(name=u'C5H9X(392)',
        atoms='H:9 C:5 X:1',
        thermo=(NASA([100.00, 931.58],
                     [ 1.90230471E+00,  3.12127776E-02,  4.07829153E-05,
                      -7.64606964E-08,  3.24764370E-11, -2.18123882E+03,
                       2.97075820E-01]),
                NASA([931.58, 5000.00],
                     [ 1.27946091E+01,  2.24504973E-02, -6.30596790E-06,
                       1.03250563E-09, -7.26473096E-14, -5.85984199E+03,
                      -6.03316247E+01])))

species(name=u'CHX(407)',
        atoms='H:1 C:1 X:1',
        thermo=(NASA([100.00, 1596.82],
                     [-9.66375239E-01,  1.63179003E-02, -1.75392280E-05,
                       8.64095863E-09, -1.55501450E-12, -5.53025681E+03,
                       2.54982370E+00]),
                NASA([1596.82, 5000.00],
                     [ 4.21481268E+00,  2.18383120E-04,  5.15662242E-07,
                      -1.20800791E-10,  8.35331125E-15, -6.78707220E+03,
                      -2.36254632E+01])))

species(name=u'C5H9X(411)',
        atoms='H:9 C:5 X:1',
        thermo=(NASA([100.00, 1025.78],
                     [ 1.84470757E+00,  3.66286673E-02,  1.39293145E-05,
                      -3.81693509E-08,  1.54734779E-11, -3.11328858E+03,
                      -3.39363458E-01]),
                NASA([1025.78, 5000.00],
                     [ 1.02256465E+01,  2.89844951E-02, -1.15039900E-05,
                       2.15401057E-09, -1.52944707E-13, -6.14993169E+03,
                      -4.74065318E+01])))

species(name=u'C4H5X(433)',
        atoms='H:5 C:4 X:1',