!---------------------------------------------------------------------!
!***********************************************************************
!****                                                                  *
!****     CH4-O2 SURFACE MECHANISM  ON PT                              *
!****                                                                  *
!***********************************************************************
!

SITE/PT_SURFACE/    SDEN/2.72E-9/
PT(S)
O(S) CO(S) CO2(S) H(S) OH(S) H2O(S)
C(S) CH(S) CH2_surf CH3(S)

HOCO(S)
OCHO(S)/2/
!CRUDHH/2/
!CRUDH/2/
!CRUD/2/
!CH3OH(S) CH3O(S) CH2O(S) HCO(S) CH2OH(S)
!CHOH(x)
!CRUD/2/
END

THERMO ALL
  300.0   1000.0   3000.0
PT(S)                   PT  1               S    300.0    3000.0  1000.0       1
 0.00000000E+00 0.00000000E+00 0.00000000E+00 0.00000000E+00 0.00000000E+00    2
 0.00000000E+00 0.00000000E+00 0.00000000E+00 0.00000000E+00 0.00000000E+00    3
 0.00000000E+00 0.00000000E+00 0.00000000E+00 0.00000000E+00                   4

! For O(S):  O2(gas) --> 2*O(gas) = 117.72 kcal/mol
! if Delta H ads for O2(gas) --> 2*O(surf) 221 kJ/mol (50.40 kcal/mol),
! then O(surf) des is (117.72 + 50.40)/2 =
O(S)                   0O   1PT  1          I    300.00   3000.00 1000.00      1
 3.03985830E+00-3.73221453E-04 5.05174597E-07-2.55429643E-10 4.49687853E-14    2
-1.32511235E+04-1.42626085E+01 1.40906580E+00 6.87385838E-03-1.21719427E-05    3
 9.88089374E-09-3.03052467E-12-1.29371473E+04-6.51591523E+00                   4

!O(S)                   0O   1PT  1          S    298.0    3000.0  1836.4       1
! 2.66340030E+00 2.75581378E-03-1.37368745E-06 3.23081244E-10-2.94527245E-14    2
!-1.43539718E+04-1.47596388E+01 4.13851137E-01 8.29440975E-03-6.48160111E-06    3
! 2.41192207E-09-3.48809359E-13-1.36225854E+04-2.81528772E+00                   4

CO(S)                  0C   1O   1PT  1     S    298.0    3000.0  1138.4       1
 3.30157467E+00 3.22585673E-03-1.64522037E-06 3.97203847E-10-3.71825129E-14    2
-3.52648108E+04-1.68693853E+01 7.42447308E-02 1.58440607E-02-2.12660054E-05    3
 1.44089301E-08-3.83670599E-12-3.45484584E+04-1.10342685E+00                   4

CO2(S)            081292C   1O   2PT  1     S    298.0    3000.0  1175.8       1
 4.37960670E+00 4.30369062E-03-2.19138184E-06 5.29591943E-10-4.97091968E-14    2
-5.09852950E+04-1.46029419E+01 1.15667335E+00 1.60037354E-02-1.91886630E-05    3
 1.19837204E-08-3.00808184E-12-5.02169236E+04 1.38192939E+00                   4

H(S)               92491H   1PT  1          S    298.0    3000.0   661.8       1
 1.04438291E+00 2.40071697E-03-1.03175266E-06 3.22308776E-10-4.29953313E-14    2
-6.13962653E+03-6.43911515E+00-2.96478697E+00 2.51965851E-02-5.90197856E-05    3
 7.47453618E-08-3.78452582E-11-5.48497964E+03 1.18350078E+01                   4

OH(S)              92491O   1H   1PT  1     S    298.0    3000.0  1167.1       1
 2.21907086E+00 3.73761990E-03-1.68506074E-06 3.77154648E-10-3.38162903E-14    2
-2.89400473E+04-1.18487505E+01 1.06931295E-01 1.12071572E-02-1.16695774E-05    3
 6.35017595E-09-1.38175383E-12-2.84580604E+04-1.38980175E+00                   4

H2O(S)             92491O   1H   2PT  1     S    298.0    3000.0  1117.2       1
 4.17644859E+00 2.61197897E-03-4.48403585E-07-4.82707516E-11 1.59642927E-14    2
-3.61500670E+04-1.85338401E+01 2.26394753E+00 1.19422664E-02-1.68751313E-05    3
 1.24193713E-08-3.44626180E-12-3.58514262E+04-9.72983102E+00                   4

HOCO(S)                0C   1H   1O   2PT  1S    298.0    3000.0  1176.8       1
 6.40223518E+00 5.78063025E-03-3.01566433E-06 7.34878326E-10-6.89594999E-14    2
-5.31747386E+04-3.28094928E+01-1.87636231E+00 3.65634282E-02-4.81802960E-05    3
 3.11292603E-08-7.85574384E-12-5.12704651E+04 7.99507208E+00                   4

OCHO(S)                0C   1H   1O   2PT  2S    298.0    3000.0  1318.8       1
 5.52988665E+00 6.67420820E-03-3.22383891E-06 7.43891522E-10-6.70153848E-14    2
-4.44968308E+04-2.81107239E+01-1.65226310E+00 2.98576129E-02-3.23998896E-05    3
 1.75265982E-08-3.75062538E-12-4.26312910E+04 8.24114124E+00                   4

C(S)                   0C   1PT  1          S    298.0    3000.0  1219.8       1
 1.30979425E+00 3.65448079E-03-1.52885179E-06 2.97571002E-10-2.18523672E-14    2
 5.69022720E+03-7.63538581E+00-6.79647308E-02 9.69620725E-03-1.23797202E-05    3
 8.94469900E-09-2.52467311E-12 6.00649131E+03-9.87695819E-01                   4

CH(S)                  0C   1H   1PT  1     S    298.0    3000.0  1300.0       1
 8.69512124E-01 4.79343005E-03-1.87350293E-06 3.34327490E-10-2.16801561E-14    2
-8.79677834E+03-5.36914378E+00 4.26763455E-01 6.75885006E-03-6.29402681E-06    3
 4.45344729E-09-1.31411326E-12-8.62609978E+03-3.10802542E+00                   4

CH2_surf               0C   1H   2PT  1     S    298.0    3000.0  1500.0       1
 1.87429591E+00 6.21641278E-03-2.54534896E-06 5.01258285E-10-3.86890810E-14    2
-5.97066388E+02-1.07315102E+01 6.72907187E-01 9.17429451E-03-5.65969467E-06    3
 2.13398576E-09-3.82118468E-13-1.63798667E+02-4.28083902E+00                   4

CH3(S)                 0C   1H   3PT  1     S    298.0    3000.0  1417.9       1
 2.67960463E+00 8.30770576E-03-3.43140511E-06 6.84299007E-10-5.36621315E-14    2
-7.06386412E+03-1.52086770E+01-4.77968312E-02 1.70395395E-02-1.45737802E-05    3
 7.19876360E-09-1.49421780E-12-6.31809960E+03-1.33085286E+00                   4

CH3OH(S)               0C   1H   4O   1PT  1S    298.0    3000.0  2101.5       1
 4.60855683E+00 1.16528439E-02-4.85488390E-06 9.87298128E-10-7.98192348E-14    2
-3.17487059E+04-2.06891172E+01 1.55990904E+00 1.80365487E-02-9.94063825E-06    3
 2.80489422E-09-3.24661414E-13-3.05601681E+04-3.98008070E+00                   4

CH3O(S)                0C   1H   3O   1PT  1S    298.0    3000.0  1432.5       1
 4.58447391E+00 9.90488619E-03-4.28186518E-06 8.85402877E-10-7.15273728E-14    2
-1.90334297E+04-2.51743941E+01-1.47795022E+00 2.77075273E-02-2.51469284E-05    3
 1.22397671E-08-2.44642302E-12-1.72582122E+04 6.16265111E+00                   4

CH2OH(S)               0C   1H   3O   1PT  1S    298.0    3000.0  1250.0       1
 4.74290621E+00 9.08066671E-03-3.98867543E-06 8.59458481E-10-7.37035172E-14    2
-2.97581739E+04-2.38461093E+01-1.17201432E+00 3.03905162E-02-3.33825537E-05    3
 1.90886696E-08-4.33288183E-12-2.84028350E+04 5.39086628E+00                   4

CH2O(S)                0C   1H   2O   1PT  1S    298.0    3000.0  1422.4       1
 2.76538130E+00 9.91198328E-03-4.91487819E-06 1.17121729E-09-1.09247164E-13    2
-2.08291132E+04-1.16741408E+01 2.16790511E+00 1.04919212E-02-4.09446904E-06    3
-1.21620787E-11 2.61656842E-13-2.05738320E+04-8.23562052E+00                   4

CHOH(x)                0C   1H   2O   1PT  1S    298.0    3000.0  2041.5       1
 4.60128810E+00 7.41478193E-03-3.32449012E-06 7.14013373E-10-6.08706233E-14    2
-2.37851869E+04-2.53078655E+01-1.19630864E+00 2.03582250E-02-1.42154959E-05    3
 4.79224083E-09-6.32834869E-13-2.16865314E+04 6.06681332E+00                   4

HCO(S)                 0C   1H   1O   1PT  1S    298.0    3000.0  1408.4       1
 3.70442472E+00 5.20956520E-03-2.42996272E-06 5.40009045E-10-4.68153903E-14    2
-2.51167762E+04-1.88934054E+01 1.90116395E-01 1.52195372E-02-1.37660501E-05    3
 6.53071790E-09-1.27533128E-12-2.40698018E+04-6.39186384E-01                   4
CRUDHH                 0C   2H   2PT  2     S    300.0    3000.0  1000.0       1
 0.00000000E+00 0.00000000E+00 0.00000000E+00 0.00000000E+00 0.00000000E+00    2
 0.00000000E+00 0.00000000E+00 0.00000000E+00 0.00000000E+00 0.00000000E+00    3
 0.00000000E+00 0.00000000E+00 0.00000000E+00 0.00000000E+00                   4
CRUDH                  0C   2H   1PT  2     S    300.0    3000.0  1000.0       1
 0.00000000E+00 0.00000000E+00 0.00000000E+00 0.00000000E+00 0.00000000E+00    2
 0.00000000E+00 0.00000000E+00 0.00000000E+00 0.00000000E+00 0.00000000E+00    3
 0.00000000E+00 0.00000000E+00 0.00000000E+00 0.00000000E+00                   4
CRUD                   0C   2PT  2          S    300.0    3000.0  1000.0       1
 0.00000000E+00 0.00000000E+00 0.00000000E+00 0.00000000E+00 0.00000000E+00    2
 0.00000000E+00 0.00000000E+00 0.00000000E+00 0.00000000E+00 0.00000000E+00    3
 0.00000000E+00 0.00000000E+00 0.00000000E+00 0.00000000E+00                   4

HFCOV ! UNITS ARE IN KELVIN!
!    H(S)    H(S)    -721.6      !   6 kJ/mol / 2
!    O(S)    O(S)    -7216.3     !   120 kJ/mol / 2  ! Deutschmann
!    CO(S)   CO(S)   -3969.0     !   33 kJ/mol       ! Deutschmann
    O(S)    O(S)    -8058.2     !   134 kJ/mol / 2   ! Hauptmann
!    CO(S)   CO(S)   -7577.1     !   63 kJ/mol        ! Hauptmann
!    O(S)    CO(S)   -8000.0     ! CFG
END

!
!!******************************************************************************!
!!*********         CH4-O2  Surface Reaction on Pt                    **********!
!!******************************************************************************!
! CFG says:  comment out Ad-Ad interactions if they don't appear in reaction.

REACTIONS      CAL/MOLE  MOLES

O2 + 2PT(S) <=> 2O(S)                 6.86E-04	0.766	0.0	! Hauptmann
STICK
!REV/			                                        1.54E+19	0.93	50396.5 /  ! as given in Korup 2013
!REV/   8.41e+12   0.93  50396.5 /  ! taken from Hauptmann 2011, but it says units are /s which cant be right
!COV/O(S)                                    			0.0	        0.0	   -32005.4/



!O + PT(S) 	            <=>	O(S)	                    1.18E-02	0.250	0.0
!STICK
!REV/                                                    5.99E+13	-0.250	85000/
!COV/O(S)                                                0.0         0.0     -16000/

! CO Oxidation
!CO + PT(S) 	            <=>	CO(S)	                    1.00E+00	0.000	0.0
!STICK
!REV/                                                    9.80E+16	-0.500	40000/
!COV/CO(S)                                                0.0         0.0     -15000/
CO + PT(S) 	            <=>	CO(S)	                    1.00E+00	0.000	0.0! Hauptmann
STICK
!REV/			                                        6.12E+14	0.39	41320.4/
!COV/CO(S)   	                                        0.00        0.00    -15047.3/



!CO2 + PT(S) 	        <=>	CO2(S)	                    4.69E-02	0.250	0.0
!STICK
!REV/                                                    1.51E+13	-0.250	3600/
CO2 + PT(S) 	        <=>	CO2(S)	                    4.69E-02	0.25	0.0	! Hauptmann
STICK
!REV/			                                        1.51E+13	-0.25	2866.2/


!CO2(S) + PT(S) 	        <=>	CO(S) + O(S)	            5.60E+18	0.177	26300
!REV/                                                    2.41E+20	-0.177	20600/
CO2(S) + PT(S) 	        <=>	CO(S) + O(S)	5.14E+19	-0.28	29855.8	! Hauptmann
COV/O(S)		                                        0.00	0.00	7643.1/
COV/CO(S) 		                                        0.00	0.00	11464.6/
!REV/			                                        4.32E+18	0.46	25795.4/
!COV/O(S)			                                    0.00	0.00	-8359.6/
!COV/CO(S)			                                    0.00	0.00	-3582.7/




! H2 Oxidation
!H2 + 2PT(S) 	        <=>	2H(S)	                    9.67E-04	0.858	0.0
!STICK
!REV/                                                    2.94E+21	-0.001	19800/
!COV/H(S)                                                0.0         0.0     -6000/
H2 + 2PT(S) 	        <=>	2H(S)	                    9.67E-04	0.858	0.0	! Hauptmann
STICK
!REV/			                                        5.43E+16	1.91	19346.5/
!COV/H(S)			                                    0.00	    0.00	-5971.2/


!OH(S) + PT(S) 	        <=>	H(S) + O(S)	                1.65E+16	1.872	27100
!REV/                                                    6.62E+19	0.624	8800/
OH(S) + PT(S) 	        <=>	H(S) + O(S)	                3.64E+17	1.33	26989.6	! Hauptmann
COV/O(S)			                                    0.00	0.00	-10031.5/
COV/H(S)			                                    0.00	0.00	955.4/
!COV/H2O(S)			                                    0.00	0.00	12420.0/
!REV/			                                        4.92E+18	1.08	8598.5/
!COV/O(S)			                                    0.00	0.00	6926.5/
!COV/H(S)			                                    0.00	0.00	-1910.8/
!COV/H2O(S)			                                    0.00	0.00	-12420.0/


!H2O(S) + PT(S) 	        <=>	H(S) + OH(S)	            6.75E+21	-0.118	17800
!REV/                                                    1.46E+24	-1.049	13500/
H2O(S) + PT(S) 	        <=>	H(S) + OH(S)	            3.18E+22	-0.39	17674.6	! Hauptmann
!COV/O(S)			0.00	0.00	11225.8/
COV/H(S)			0.00	0.00	1194.2/
COV/OH(S)			0.00	0.00	12420.0/
COV/H2O(S)			0.00	0.00	-10986.9/
!REV/			3.03E+22	-0.37	13375.4/
!COV/O(S)			0.00	0.00	-21735.0/
!COV/H(S)			0.00	0.00	-1910.8/
!COV/OH(S)			0.00	0.00	-12420.0/
!COV/H2O(S)			0.00	0.00	16480.4/


!H2O(S) + O(S) 	        <=>	2OH(S)	                    9.95E+18	0.082	8800
!REV/                                                    9.79E+17	0.325	22700/
H2O(S) + O(S) 	        <=>	2OH(S)	                    2.42E+18	0.33	8598.5	! Hauptmann
COV/O(S)			0.00	0.00	16719.2/
COV/OH(S)			0.00	0.00	12420.0/
COV/H2O(S)			0.00	0.00	-20063.1/
!REV/			3.04E+17	0.53	22690.4/
!COV/O(S)			0.00	0.00	-33199.6/
!COV/OH(S)			0.00	0.00	-12420.0/
!COV/H2O(S)			0.00	0.00	32483.1/


!OH + PT(S) 	            <=>	OH(S)	                    1.11E-05	2.000	0.0
!STICK
!REV/                                                    1.60E+09	2.000	63000/
!COV/O(S)                                                0.0         0.0     -33000/
!COV/H2O(S)                                              0.0         0.0     -25000/

!H2O + PT(S) 	        <=>	H2O(S)	                    1.43E-04	1.162	0.0
!STICK
!REV/                                                    8.11E+08	1.372	10000/
!COV/H2O(S)                                              0.0         0.0     -2500/
!COV/OH(S)                                               0.0         0.0     -25000/
H2O + PT(S) 	        <=>	H2O(S)	                    1.45E-04	1.16	0.0	! Hauptmann
STICK
!REV/			1.38E+06	2.49	9553.8/
!COV/OH(S)			0.00	0.00	25078.8/
!COV/H2O(S)			0.00	0.00	-2388.5/


!H + PT(S) 	            <=>	H(S)	                    1.11E-05	1.832	0.0
!STICK
!REV/                                                    9.09E+08	1.890	62000/
!COV/H(S)                                                0.0         0.0     -3000/

! Coupling between CO and H2
!CO2(S) + H(S) 	        <=>	CO(S) + OH(S)	            6.10E+18	-0.531	6000
!REV/                                                    2.22E+16	0.531	18500/
CO2(S) + H(S) 	        <=>	CO(S) + OH(S)	            1.94E+18	-0.33	9553.8	! Hauptmann
!COV/O(S)			0.00	0.00	12897.7/
COV/H(S)			0.00	0.00	-1433.1/
!COV/H2O(S)			0.00	0.00	-10748.1/
COV/CO(S)			0.00	0.00	4299.2/
!REV/			4.28E+15	0.82	23884.6/
!COV/O(S)			0.00	0.00	-20063.1/
COV/H(S)			0.00	0.00	1433.1/
!COV/H2O(S)			0.00	0.00	14091.9/
COV/CO(S)			0.00	0.00	-10509.2/


! CH4 oxidation
!C + PT(S) 	            <=>	C(S)	                    6.74E-03	0.156	0.0
!STICK
!REV/                                                    1.05E+14	-0.156	157700/

!CH + PT(S) 	            <=>	CH(S)	                    1.01E-02	0.051	0.0
!STICK
!REV/                                                    6.98E+13	-0.051	157100/

!CH2 + PT(S) 	        <=>	CH2_surf	                    2.30E-02	0.118	0.0
!STICK
!REV/                                                    3.08E+13	-0.118	91600/

!CH3 + PT(S) 	        <=>	CH3(S)	                    2.81E-01	-0.099	0.0
!STICK
!REV/                                                    2.51E+12	0.099	45300/

CH4 + 2PT(S) 	        <=>	CH3(S) + H(S)	            4.82E-02	0.154	9000
STICK
!REV/                                                    5.42E+19	-0.154	11300/

CH3(S) + PT(S) 	        <=>	CH2_surf + H(S)	            3.74E+17	0.419	15800
!REV/                                                    3.61E+19	-0.419	13300/

CH2_surf + PT(S) 	        <=>	CH(S) + H(S)	            5.41E+18	0.222	9000
!REV/                                                    2.50E+20	-0.222	35400/

CH(S) + PT(S) 	        <=>	C(S) + H(S)	                3.46E+18	0.398	31300
!REV/                                                    3.91E+20	-0.398	13200/

CH3(S) + O(S) 	        <=>	CH2_surf + OH(S)	            2.69E+20	-0.230	10800
!REV/                                                    5.03E+18	0.230	26600/

CH(S) + OH(S) 	        <=>	CH2_surf + O(S)	            3.81E+18	0.414	44700
!REV/                                                    3.55E+20	-0.414	0.0/

C(S) + OH(S) 	        <=>	CH(S) + O(S)	            6.49E+18	0.225	27700
!REV/                                                    2.08E+20	-0.225	27500/

CH2_surf + H2O(S) 	    <=>	CH3(S) + OH(S)	            1.71E+19	0.099	14100
!REV/                                                    7.89E+19	-0.099	12300/

CH(S) + H2O(S) 	        <=>	CH2_surf + OH(S)	            1.43E+19	0.269	34000
!REV/                                                    9.43E+19	-0.269	3300/

C(S) + H2O(S) 	        <=>	CH(S) + OH(S)	            2.29E+19	0.090	15600
!REV/                                                    5.90E+19	-0.090	29300/

CO(S) + PT(S) 	        <=>	C(S) + O(S)	                7.26E+18	0.468	76800
!REV/                                                    1.86E+20	-0.468	22300/

CO(S) + H(S) 	        <=>	CH(S) + O(S)	            7.56E+18	0.073	45800
!REV/                                                    1.79E+18	-0.073	9300/

CO(S) + H(S) 	        <=>	C(S) + OH(S)	            1.91E+20	-0.168	40700
!REV/                                                    1.14E+18	0.168	4400/

2CO(S) 	                <=>	C(S) + CO2(S)	            2.32E+20	0.393	48800
!REV/                                                    5.81E+20	-0.393	0.0/


!!!!!!!!!!!!!!!
!! HOCO REACTIONS
!!!!!!!!!!!!!!!

!HOCO + PT(S) 	        <=>	HOCO(S)	                    1.05E-01	-0.089	0.0
!STICK
!REV/                                                    2.48E+21	0.089	55300/

!HOCO(S) + PT(S)         <=>	CO(S) + OH(S)	            2.70E+17	0.024	5300
!REV/                                                    5.02E+17	-0.024	19100/
HOCO(S) + PT(S)         <=>	CO(S) + OH(S)	            2.61E+17	0.03	8837.3	! Hauptmann
!!COV/O(S)			0.00	0.00	12897.7/
!!COV/H2O(S)			0.00	0.00	-10748.1/
COV/CO(S)			0.00	0.00	4299.2/
!REV/			3.00E+16	0.47	23884.6/
!!COV/O(S)			0.00	0.00	-19824.2/
!!COV/H2O(S)			0.00	0.00	14091.9/
!COV/CO(S)			0.00	0.00	-10509.2/



!HOCO(S) + PT(S)         <=>	CO2(S) + H(S)	            1.70E+18	0.549	1000
!REV/                                                    7.96E+20	-0.549	2400/
HOCO(S) + PT(S)         <=>	CO2(S) + H(S)	            1.43E+18	0.58	955.4	! Hauptmann
COV/H(S)			0.00	0.00	1433.1/
!REV/			6.51E+19	-0.11	1671.9/
!COV/H(S)			0.00	0.00	-1433.1/

!CO(S) + H2O(S) 	        <=>	HOCO(S) + H(S)	            2.44E+18	0.492	23700
!REV/                                                    5.52E+20	-0.492	5600/
CO(S) + H2O(S) 	        <=>	HOCO(S) + H(S)	            2.47E+18	0.49	24362.3	! Hauptmann
COV/H(S)			0.00	0.00	1194.2/
!COV/OH(S)			0.00	0.00	12420.0/
COV/H2O(S)			0.00	0.00	-1194.2/
COV/CO(S)			0.00	0.00	-7404.2/
!REV/			3.96E+19	-0.03	4776.9/
!COV/H(S)			0.00	0.00	-1910.8/
!COV/OH(S)			0.00	0.00	-12420.0/
!COV/H2O(S)			0.00	0.00	1194.2/
!COV/CO(S)			0.00	0.00	7404.2/


!CO2(S) + OH(S) 	        <=>	HOCO(S) + O(S)	            1.13E+19	0.097	26500
!REV/                                                    1.20E+20	-0.097	7000/
CO2(S) + OH(S) 	        <=>	HOCO(S) + O(S)	            1.48E+19	0.05	26273.1	! Hauptmann
!COV/O(S)			0.00	0.00	-9792.7/
!COV/H2O(S)			0.00	0.00	12420.0/
!REV/			5.28E+18	0.45	7165.4/
!COV/O(S)			0.00	0.00	7165.4/
!COV/H2O(S)			0.00	0.00	-12420.0/
! something fishy about these values.

!CO2(S) + H2O(S)         <=>	HOCO(S) + OH(S)	            3.79E+19	-0.031	17500
!REV/                                                    3.57E+19	0.031	11900/
CO2(S) + H2O(S)         <=>	HOCO(S) + OH(S)	            4.22E+19	-0.05	17196.9	! Hauptmann
!!COV/O(S)			0.00	0.00	11703.5/
!COV/OH(S)			0.00	0.00	12420.0/
!COV/H2O(S)			0.00	0.00	-11464.6/
!REV/			1.75E+18	0.56	11942.3/
!!COV/O(S)			0.00	0.00	-21257.3/
!COV/OH(S)			0.00	0.00	-12420.0/
!COV/H2O(S)			0.00	0.00	16002.7/
! something fishy about these values.


!!!!!!!!!!!!!!!
!! OCHO REACTIONS
!!!!!!!!!!!!!!!

!OCHO + 2PT(S) 	        <=>	OCHO(S)	                    4.64E-02	0.201	0.0
!STICK
!REV/                                                    1.52E+13	-0.201	53000/

!CO2(S) + H(S) 	        <=>	OCHO(S)	                    4.57E+20	-0.422	18500
!REV/                                                    8.07E+09	0.422	0.0/
!CO2(S) + H(S) 	        <=>	OCHO(S)	                    6.50E+19	-0.08	17913.5	! Hauptmann
!COV/H(S)			0.00	0.00	-3105.0/
!REV/			8.16E+09	0.42	0.0/
! cov term is unstabilizing

!CO2(S) + OH(S) + PT(S) 	<=>	OCHO(S) + O(S)	            2.17E+27	0.236	36800
!REV/                                                    2.29E+20	-0.236	0.0/
!CO2(S) + OH(S) + PT(S) 	<=>	OCHO(S) + O(S)	            5.80E+28	-0.34	36304.6	! Hauptmann
!COV/O(S)			0.00	0.00	-16958.1/
!COV/H2O(S)			0.00	0.00	25078.8/
!REV/			1.48E+20	-0.16	0.0/
! cov term is unstabilizing

!CO2(S) + H2O(S) + PT(S) <=>	OCHO(S) + OH(S)	            8.02E+27	0.095	25800
!REV/                                                    6.18E+19	-0.095	3000/
!CO2(S) + H2O(S) + PT(S) <=>	OCHO(S) + OH(S)	            1.07E+29	-0.36	25556.5	! Hauptmann
!!COV/O(S)			0.00	0.00	11942.3/
!COV/OH(S)			0.00	0.00	12420.0/
!COV/H2O(S)			0.00	0.00	-11464.6/
!REV/			2.41E+19	0.07	3105.0/
!!COV/O(S)			0.00	0.00	-21018.4/
!COV/OH(S)			0.00	0.00	-12420.0/
!COV/H2O(S)			0.00	0.00	16002.7/

END
