!---------------------------------------------------------------------!
!***********************************************************************
!****                                                                  *
!****     CH4-O2 SURFACE MECHANISM  ON PT                              *
!****                                                                  *
!***********************************************************************
!

SITE/PT_SURFACE/    SDEN/2.72E-9/
PT(S)
O(S) CO(S) CO2(S) H(S) OH(S) H2O(S)
C(S) CH(S) CH2_surf CH3(S)

HOCO(S)
OCHO(S)/2/
!CRUDHH/2/
!CRUDH/2/
!CRUD/2/
!CH3OH(S) CH3O(S) CH2O(S) HCO(S) CH2OH(S)
!CHOH(x)
!CRUD/2/
END

THERMO ALL
  300.0   1000.0   3000.0
PT(S)                   PT  1               G    100.00   5000.000 1554.8      1
 1.60299900E-01-2.52235409E-04 1.14181275E-07-1.21471653E-11 3.85790025E-16    2
-7.08100885E+01-9.09527530E-01 7.10139498E-03-4.25619522E-05 8.98533016E-08    3
-7.80193649E-11 2.32465471E-14-8.76101712E-01-3.11211229E-02                   4

! For O(S):  O2(gas) --> 2*O(gas) = 117.72 kcal/mol
! if Delta H ads for O2(gas) --> 2*O(surf) 221 kJ/mol (50.40 kcal/mol),
! then O(surf) des is (117.72 + 50.40)/2 =
O(S)                   0O   1PT  1          G    100.00   5000.00  952.91      1
 1.89892178E+00 2.03297975E-03-1.19978087E-06 2.32684304E-10-1.53511352E-14    2
-1.75144897E+04-9.64096026E+00-7.59007329E-01 1.89867771E-02-3.82470955E-05    3
 3.43554391E-08-1.13972478E-11-1.72389496E+04 1.76015370E+00                   4

!O(S)                   0O   1PT  1          S    298.0    3000.0  1836.4       1
! 2.66340030E+00 2.75581378E-03-1.37368745E-06 3.23081244E-10-2.94527245E-14    2
!-1.43539718E+04-1.47596388E+01 4.13851137E-01 8.29440975E-03-6.48160111E-06    3
! 2.41192207E-09-3.48809359E-13-1.36225854E+04-2.81528772E+00                   4

CO(S)                  0C   1O   1PT  1     G    100.0    5000.0  929.00       1
 4.10128731E+00 1.49966159E-03-4.76451778E-07 7.90371698E-11-5.45621582E-15    2
-1.13402784E+04-1.15510308E+01 3.35301865E+00 2.26103969E-03 2.26693939E-06    3
-4.74058434E-09 2.05873755E-12-1.10950770E+04-7.42473656E+00                   4

CO2(S)            081292C   1O   2PT  1     G    100.00   5000.0  953.60       1
 5.99804988E+00 2.27482238E-03-6.81075329E-07 1.34428306E-10-1.11506248E-14    2
-4.61838333E+04-2.11650815E+01 3.09268416E+00 5.29285051E-03 8.99424169E-06    3
-1.67126189E-08 7.04895731E-12-4.52128351E+04-5.10054525E+00                   4

H(S)               92491H   1PT  1          G    100.00   5000.0  952.91       1
 2.80339655E+00-5.41047017E-04 4.99507978E-07-7.54963647E-11 3.06772366E-15    2
-4.31734521E+03-1.59436787E+01-3.80965452E-01 5.47228709E-03 2.60912778E-06    3
-9.64961980E-09 4.63946753E-12-3.37659580E+03 1.01725550E+00                   4

OH(S)              92491O   1H   1PT  1     G    100.00   5000.0  914.58       1
 2.43515780E+00 4.64644986E-03-2.40014139E-06 4.26415498E-10-2.60661215E-14    2
-1.94988113E+04-1.03865094E+01-1.29513706E+00 3.36476246E-02-7.07717851E-05    3
 6.54315116E-08-2.19410183E-11-1.93470613E+04 4.37624874E+00                   4

H2O(S)             92491O   1H   2PT  1     S    298.0    3000.0  1117.2       1
 4.17644859E+00 2.61197897E-03-4.48403585E-07-4.82707516E-11 1.59642927E-14    2
-3.61500670E+04-1.85338401E+01 2.26394753E+00 1.19422664E-02-1.68751313E-05    3
 1.24193713E-08-3.44626180E-12-3.58514262E+04-9.72983102E+00                   4

HOCO(S)                0C   1H   1O   2PT  1G    100.00   5000.0  912.85       1
 1.12158920E+00 8.16639256E-03-4.02358034E-06 7.20420773E-10-4.51442235E-14    2
-3.20615235E+04 3.39615620E+00-1.34340138E+00 3.66695539E-02-7.99480721E-05    3
 7.74125241E-08-2.68665364E-11-3.23490305E+04 1.10237667E+01                   4

OCHO(S)                0C   1H   1O   2PT  2S    298.0    3000.0  1318.8       1
 5.52988665E+00 6.67420820E-03-3.22383891E-06 7.43891522E-10-6.70153848E-14    2
-4.44968308E+04-2.81107239E+01-1.65226310E+00 2.98576129E-02-3.23998896E-05    3
 1.75265982E-08-3.75062538E-12-4.26312910E+04 8.24114124E+00                   4

C(S)                   0C   1PT  1          G    100.00   5000.0  1401.12      1
 3.08077816E+00-6.87491579E-04 5.17603202E-07-9.73051930E-11 6.24267331E-15    2
 5.33530975E+03-1.70992417E+01-6.04857932E-01 1.10908424E-02-1.34369871E-05    3
 7.18241020E-09-1.40685955E-12 6.24479350E+03 1.48480596E+00                   4

CH(S)                  0C   1H   1PT  1     G    100.00   5000.0  1596.82      1
 4.21481268E+00 2.18383120E-04 5.15662242E-07-1.20800791E-10 8.35331125E-15    2
-4.61122727E+03-2.36254632E+01-9.66375239E-01 1.63179003E-02-1.75392280E-05    3
 8.64095863E-09-1.55501450E-12-3.35441189E+03 2.54982370E+00                   4

CH2_surf               0C   1H   2PT  1     G    100.00   5000.0  1199.82      1
 3.89285483E+00 3.99892281E-03-1.25227942E-06 2.09081361E-10-1.39642489E-14    2
-1.53105717E+03-2.16053707E+01-1.02006594E+00 2.03778552E-02-2.17291076E-05    3
 1.15868543E-08-2.38469979E-12-3.52138299E+02 2.99160459E+00                   4

CH3(S)                 0C   1H   3PT  1     G    100.00   5000.0  848.30       1
 1.62290877E+00 1.12987268E-02-5.08316908E-06 9.46833581E-10-6.42885536E-14    2
-6.43628772E+03-5.42501059E+00-1.21090496E+00 2.92390681E-02-4.49011079E-05    3
 3.86009808E-08-1.30361041E-11-6.12022281E+03 6.80939750E+00                   4

! Couldn't find this one in rmg cpox chemkin files, so left the original
CH3OH(S)               0C   1H   4O   1PT  1S    298.0    3000.0  2101.5       1
 4.60855683E+00 1.16528439E-02-4.85488390E-06 9.87298128E-10-7.98192348E-14    2
-3.17487059E+04-2.06891172E+01 1.55990904E+00 1.80365487E-02-9.94063825E-06    3
 2.80489422E-09-3.24661414E-13-3.05601681E+04-3.98008070E+00                   4

! This could either be CO[Pt] or OC[Pt]
! Let's guess that it's CO[Pt]
CH3O(S)                0C   1H   3O   1PT  1G    100.00   5000.0  857.67       1
 1.14786899E+00 1.71346045E-02-8.39649029E-06 1.59810518E-09-1.08977854E-13    2
-2.00429254E+04-2.79262277E+00-1.68419050E+00 4.28019546E-02-7.50767196E-05    3
 7.03658026E-08-2.50908186E-11-2.00153834E+04 7.76412161E+00                   4

! If it's not, this is the thermo for CO[Pt]
!CH3O(S)                0C   1H   3O   1PT  1G    100.00   5000.0  813.94       1
! 3.25579221E+00 1.30434803E-02-5.99158702E-06 1.13138422E-09-7.77149614E-14    2
!-3.58749799E+04-1.40488937E+01-1.68232083E+00 3.97249389E-02-5.96107529E-05    3
! 4.86920970E-08-1.58049204E-11-3.51510708E+04 8.26687835E+00                   4

! Couldn't find this one in rmg cpox chemkin files, so left the original
CH2OH(S)               0C   1H   3O   1PT  1S    298.0    3000.0  1250.0       1
 4.74290621E+00 9.08066671E-03-3.98867543E-06 8.59458481E-10-7.37035172E-14    2
-2.97581739E+04-2.38461093E+01-1.17201432E+00 3.03905162E-02-3.33825537E-05    3
 1.90886696E-08-4.33288183E-12-2.84028350E+04 5.39086628E+00                   4

! This one might be C=O.[Pt]?
CH2O(S)                0C   1H   2O   1PT  1G   100.00    5000.0  879.32       1
-8.92927768E-01 1.66196503E-02-8.71596166E-06 1.66816675E-09-1.12503958E-13    2
-1.95446346E+04 1.78928299E+01-1.46696967E+00 4.13871743E-02-8.87616535E-05    3
 9.10110992E-08-3.36607081E-11-2.03002411E+04 1.57178332E+01                   4

! If it's not, this is the thermo for OC=[Pt]
CH2O(S)                0C   1H   2O   1PT  1G   100.00    5000.0   648.58      1
 2.89871338E+00 1.07013277E-02-5.08861557E-06 9.82711256E-10-6.86706754E-14    2
-2.67442360E+04-1.25157474E+01-1.34991375E+00 3.25573585E-02-4.55834835E-05    3
 3.22740051E-08-8.14728247E-12-2.61016993E+04 6.84667740E+00                   4

! Couldn't find this one in rmg cpox chemkin files, so left the original
CHOH(x)                0C   1H   2O   1PT  1S    298.0    3000.0  2041.5       1
 4.60128810E+00 7.41478193E-03-3.32449012E-06 7.14013373E-10-6.08706233E-14    2
-2.37851869E+04-2.53078655E+01-1.19630864E+00 2.03582250E-02-1.42154959E-05    3
 4.79224083E-09-6.32834869E-13-2.16865314E+04 6.06681332E+00                   4

! Couldn't find this one in rmg cpox chemkin files, so left the original
HCO(S)                 0C   1H   1O   1PT  1S    298.0    3000.0  1408.4       1
 3.70442472E+00 5.20956520E-03-2.42996272E-06 5.40009045E-10-4.68153903E-14    2
-2.51167762E+04-1.88934054E+01 1.90116395E-01 1.52195372E-02-1.37660501E-05    3
 6.53071790E-09-1.27533128E-12-2.40698018E+04-6.39186384E-01                   4
CRUDHH                 0C   2H   2PT  2     S    300.0    3000.0  1000.0       1
 0.00000000E+00 0.00000000E+00 0.00000000E+00 0.00000000E+00 0.00000000E+00    2
 0.00000000E+00 0.00000000E+00 0.00000000E+00 0.00000000E+00 0.00000000E+00    3
 0.00000000E+00 0.00000000E+00 0.00000000E+00 0.00000000E+00                   4
CRUDH                  0C   2H   1PT  2     S    300.0    3000.0  1000.0       1
 0.00000000E+00 0.00000000E+00 0.00000000E+00 0.00000000E+00 0.00000000E+00    2
 0.00000000E+00 0.00000000E+00 0.00000000E+00 0.00000000E+00 0.00000000E+00    3
 0.00000000E+00 0.00000000E+00 0.00000000E+00 0.00000000E+00                   4
CRUD                   0C   2PT  2          S    300.0    3000.0  1000.0       1
 0.00000000E+00 0.00000000E+00 0.00000000E+00 0.00000000E+00 0.00000000E+00    2
 0.00000000E+00 0.00000000E+00 0.00000000E+00 0.00000000E+00 0.00000000E+00    3
 0.00000000E+00 0.00000000E+00 0.00000000E+00 0.00000000E+00                   4

HFCOV ! UNITS ARE IN KELVIN!
!    H(S)    H(S)    -721.6      !   6 kJ/mol / 2
!    O(S)    O(S)    -7216.3     !   120 kJ/mol / 2  ! Deutschmann
!    CO(S)   CO(S)   -3969.0     !   33 kJ/mol       ! Deutschmann
    O(S)    O(S)    -8058.2     !   134 kJ/mol / 2   ! Hauptmann
!    CO(S)   CO(S)   -7577.1     !   63 kJ/mol        ! Hauptmann
!    O(S)    CO(S)   -8000.0     ! CFG
END

!
!!******************************************************************************!
!!*********         CH4-O2  Surface Reaction on Pt                    **********!
!!******************************************************************************!
! CFG says:  comment out Ad-Ad interactions if they don't appear in reaction.

REACTIONS      CAL/MOLE  MOLES

O2 + 2PT(S) <=> 2O(S)                 6.86E-04	0.766	0.0	! Hauptmann
STICK
!REV/			                                        1.54E+19	0.93	50396.5 /  ! as given in Korup 2013
!REV/   8.41e+12   0.93  50396.5 /  ! taken from Hauptmann 2011, but it says units are /s which cant be right
!COV/O(S)                                    			0.0	        0.0	   -32005.4/



!O + PT(S) 	            <=>	O(S)	                    1.18E-02	0.250	0.0
!STICK
!REV/                                                    5.99E+13	-0.250	85000/
!COV/O(S)                                                0.0         0.0     -16000/

! CO Oxidation
!CO + PT(S) 	            <=>	CO(S)	                    1.00E+00	0.000	0.0
!STICK
!REV/                                                    9.80E+16	-0.500	40000/
!COV/CO(S)                                                0.0         0.0     -15000/
CO + PT(S) 	            <=>	CO(S)	                    1.00E+00	0.000	0.0! Hauptmann
STICK
!REV/			                                        6.12E+14	0.39	41320.4/
!COV/CO(S)   	                                        0.00        0.00    -15047.3/



!CO2 + PT(S) 	        <=>	CO2(S)	                    4.69E-02	0.250	0.0
!STICK
!REV/                                                    1.51E+13	-0.250	3600/
CO2 + PT(S) 	        <=>	CO2(S)	                    4.69E-02	0.25	0.0	! Hauptmann
STICK
!REV/			                                        1.51E+13	-0.25	2866.2/


!CO2(S) + PT(S) 	        <=>	CO(S) + O(S)	            5.60E+18	0.177	26300
!REV/                                                    2.41E+20	-0.177	20600/
CO2(S) + PT(S) 	        <=>	CO(S) + O(S)	5.14E+19	-0.28	29855.8	! Hauptmann
COV/O(S)		                                        0.00	0.00	7643.1/
COV/CO(S) 		                                        0.00	0.00	11464.6/
!REV/			                                        4.32E+18	0.46	25795.4/
!COV/O(S)			                                    0.00	0.00	-8359.6/
!COV/CO(S)			                                    0.00	0.00	-3582.7/




! H2 Oxidation
!H2 + 2PT(S) 	        <=>	2H(S)	                    9.67E-04	0.858	0.0
!STICK
!REV/                                                    2.94E+21	-0.001	19800/
!COV/H(S)                                                0.0         0.0     -6000/
H2 + 2PT(S) 	        <=>	2H(S)	                    9.67E-04	0.858	0.0	! Hauptmann
STICK
!REV/			                                        5.43E+16	1.91	19346.5/
!COV/H(S)			                                    0.00	    0.00	-5971.2/


!OH(S) + PT(S) 	        <=>	H(S) + O(S)	                1.65E+16	1.872	27100
!REV/                                                    6.62E+19	0.624	8800/
OH(S) + PT(S) 	        <=>	H(S) + O(S)	                3.64E+17	1.33	26989.6	! Hauptmann
COV/O(S)			                                    0.00	0.00	-10031.5/
COV/H(S)			                                    0.00	0.00	955.4/
!COV/H2O(S)			                                    0.00	0.00	12420.0/
!REV/			                                        4.92E+18	1.08	8598.5/
!COV/O(S)			                                    0.00	0.00	6926.5/
!COV/H(S)			                                    0.00	0.00	-1910.8/
!COV/H2O(S)			                                    0.00	0.00	-12420.0/


!H2O(S) + PT(S) 	        <=>	H(S) + OH(S)	            6.75E+21	-0.118	17800
!REV/                                                    1.46E+24	-1.049	13500/
H2O(S) + PT(S) 	        <=>	H(S) + OH(S)	            3.18E+22	-0.39	17674.6	! Hauptmann
!COV/O(S)			0.00	0.00	11225.8/
COV/H(S)			0.00	0.00	1194.2/
COV/OH(S)			0.00	0.00	12420.0/
COV/H2O(S)			0.00	0.00	-10986.9/
!REV/			3.03E+22	-0.37	13375.4/
!COV/O(S)			0.00	0.00	-21735.0/
!COV/H(S)			0.00	0.00	-1910.8/
!COV/OH(S)			0.00	0.00	-12420.0/
!COV/H2O(S)			0.00	0.00	16480.4/


!H2O(S) + O(S) 	        <=>	2OH(S)	                    9.95E+18	0.082	8800
!REV/                                                    9.79E+17	0.325	22700/
H2O(S) + O(S) 	        <=>	2OH(S)	                    2.42E+18	0.33	8598.5	! Hauptmann
COV/O(S)			0.00	0.00	16719.2/
COV/OH(S)			0.00	0.00	12420.0/
COV/H2O(S)			0.00	0.00	-20063.1/
!REV/			3.04E+17	0.53	22690.4/
!COV/O(S)			0.00	0.00	-33199.6/
!COV/OH(S)			0.00	0.00	-12420.0/
!COV/H2O(S)			0.00	0.00	32483.1/


!OH + PT(S) 	            <=>	OH(S)	                    1.11E-05	2.000	0.0
!STICK
!REV/                                                    1.60E+09	2.000	63000/
!COV/O(S)                                                0.0         0.0     -33000/
!COV/H2O(S)                                              0.0         0.0     -25000/

!H2O + PT(S) 	        <=>	H2O(S)	                    1.43E-04	1.162	0.0
!STICK
!REV/                                                    8.11E+08	1.372	10000/
!COV/H2O(S)                                              0.0         0.0     -2500/
!COV/OH(S)                                               0.0         0.0     -25000/
H2O + PT(S) 	        <=>	H2O(S)	                    1.45E-04	1.16	0.0	! Hauptmann
STICK
!REV/			1.38E+06	2.49	9553.8/
!COV/OH(S)			0.00	0.00	25078.8/
!COV/H2O(S)			0.00	0.00	-2388.5/


!H + PT(S) 	            <=>	H(S)	                    1.11E-05	1.832	0.0
!STICK
!REV/                                                    9.09E+08	1.890	62000/
!COV/H(S)                                                0.0         0.0     -3000/

! Coupling between CO and H2
!CO2(S) + H(S) 	        <=>	CO(S) + OH(S)	            6.10E+18	-0.531	6000
!REV/                                                    2.22E+16	0.531	18500/
CO2(S) + H(S) 	        <=>	CO(S) + OH(S)	            1.94E+18	-0.33	9553.8	! Hauptmann
!COV/O(S)			0.00	0.00	12897.7/
COV/H(S)			0.00	0.00	-1433.1/
!COV/H2O(S)			0.00	0.00	-10748.1/
COV/CO(S)			0.00	0.00	4299.2/
!REV/			4.28E+15	0.82	23884.6/
!COV/O(S)			0.00	0.00	-20063.1/
COV/H(S)			0.00	0.00	1433.1/
!COV/H2O(S)			0.00	0.00	14091.9/
COV/CO(S)			0.00	0.00	-10509.2/


! CH4 oxidation
!C + PT(S) 	            <=>	C(S)	                    6.74E-03	0.156	0.0
!STICK
!REV/                                                    1.05E+14	-0.156	157700/

!CH + PT(S) 	            <=>	CH(S)	                    1.01E-02	0.051	0.0
!STICK
!REV/                                                    6.98E+13	-0.051	157100/

!CH2 + PT(S) 	        <=>	CH2_surf	                    2.30E-02	0.118	0.0
!STICK
!REV/                                                    3.08E+13	-0.118	91600/

!CH3 + PT(S) 	        <=>	CH3(S)	                    2.81E-01	-0.099	0.0
!STICK
!REV/                                                    2.51E+12	0.099	45300/

CH4 + 2PT(S) 	        <=>	CH3(S) + H(S)	            4.82E-02	0.154	9000
STICK
!REV/                                                    5.42E+19	-0.154	11300/

CH3(S) + PT(S) 	        <=>	CH2_surf + H(S)	            3.74E+17	0.419	15800
!REV/                                                    3.61E+19	-0.419	13300/

CH2_surf + PT(S) 	        <=>	CH(S) + H(S)	            5.41E+18	0.222	9000
!REV/                                                    2.50E+20	-0.222	35400/

CH(S) + PT(S) 	        <=>	C(S) + H(S)	                3.46E+18	0.398	31300
!REV/                                                    3.91E+20	-0.398	13200/

CH3(S) + O(S) 	        <=>	CH2_surf + OH(S)	            2.69E+20	-0.230	10800
!REV/                                                    5.03E+18	0.230	26600/

CH(S) + OH(S) 	        <=>	CH2_surf + O(S)	            3.81E+18	0.414	44700
!REV/                                                    3.55E+20	-0.414	0.0/

C(S) + OH(S) 	        <=>	CH(S) + O(S)	            6.49E+18	0.225	27700
!REV/                                                    2.08E+20	-0.225	27500/

CH2_surf + H2O(S) 	    <=>	CH3(S) + OH(S)	            1.71E+19	0.099	14100
!REV/                                                    7.89E+19	-0.099	12300/

CH(S) + H2O(S) 	        <=>	CH2_surf + OH(S)	            1.43E+19	0.269	34000
!REV/                                                    9.43E+19	-0.269	3300/

C(S) + H2O(S) 	        <=>	CH(S) + OH(S)	            2.29E+19	0.090	15600
!REV/                                                    5.90E+19	-0.090	29300/

CO(S) + PT(S) 	        <=>	C(S) + O(S)	                7.26E+18	0.468	76800
!REV/                                                    1.86E+20	-0.468	22300/

CO(S) + H(S) 	        <=>	CH(S) + O(S)	            7.56E+18	0.073	45800
!REV/                                                    1.79E+18	-0.073	9300/

CO(S) + H(S) 	        <=>	C(S) + OH(S)	            1.91E+20	-0.168	40700
!REV/                                                    1.14E+18	0.168	4400/

2CO(S) 	                <=>	C(S) + CO2(S)	            2.32E+20	0.393	48800
!REV/                                                    5.81E+20	-0.393	0.0/


!!!!!!!!!!!!!!!
!! HOCO REACTIONS
!!!!!!!!!!!!!!!

!HOCO + PT(S) 	        <=>	HOCO(S)	                    1.05E-01	-0.089	0.0
!STICK
!REV/                                                    2.48E+21	0.089	55300/

!HOCO(S) + PT(S)         <=>	CO(S) + OH(S)	            2.70E+17	0.024	5300
!REV/                                                    5.02E+17	-0.024	19100/
HOCO(S) + PT(S)         <=>	CO(S) + OH(S)	            2.61E+17	0.03	8837.3	! Hauptmann
!!COV/O(S)			0.00	0.00	12897.7/
!!COV/H2O(S)			0.00	0.00	-10748.1/
COV/CO(S)			0.00	0.00	4299.2/
!REV/			3.00E+16	0.47	23884.6/
!!COV/O(S)			0.00	0.00	-19824.2/
!!COV/H2O(S)			0.00	0.00	14091.9/
!COV/CO(S)			0.00	0.00	-10509.2/



!HOCO(S) + PT(S)         <=>	CO2(S) + H(S)	            1.70E+18	0.549	1000
!REV/                                                    7.96E+20	-0.549	2400/
HOCO(S) + PT(S)         <=>	CO2(S) + H(S)	            1.43E+18	0.58	955.4	! Hauptmann
COV/H(S)			0.00	0.00	1433.1/
!REV/			6.51E+19	-0.11	1671.9/
!COV/H(S)			0.00	0.00	-1433.1/

!CO(S) + H2O(S) 	        <=>	HOCO(S) + H(S)	            2.44E+18	0.492	23700
!REV/                                                    5.52E+20	-0.492	5600/
CO(S) + H2O(S) 	        <=>	HOCO(S) + H(S)	            2.47E+18	0.49	24362.3	! Hauptmann
COV/H(S)			0.00	0.00	1194.2/
!COV/OH(S)			0.00	0.00	12420.0/
COV/H2O(S)			0.00	0.00	-1194.2/
COV/CO(S)			0.00	0.00	-7404.2/
!REV/			3.96E+19	-0.03	4776.9/
!COV/H(S)			0.00	0.00	-1910.8/
!COV/OH(S)			0.00	0.00	-12420.0/
!COV/H2O(S)			0.00	0.00	1194.2/
!COV/CO(S)			0.00	0.00	7404.2/


!CO2(S) + OH(S) 	        <=>	HOCO(S) + O(S)	            1.13E+19	0.097	26500
!REV/                                                    1.20E+20	-0.097	7000/
CO2(S) + OH(S) 	        <=>	HOCO(S) + O(S)	            1.48E+19	0.05	26273.1	! Hauptmann
!COV/O(S)			0.00	0.00	-9792.7/
!COV/H2O(S)			0.00	0.00	12420.0/
!REV/			5.28E+18	0.45	7165.4/
!COV/O(S)			0.00	0.00	7165.4/
!COV/H2O(S)			0.00	0.00	-12420.0/
! something fishy about these values.

!CO2(S) + H2O(S)         <=>	HOCO(S) + OH(S)	            3.79E+19	-0.031	17500
!REV/                                                    3.57E+19	0.031	11900/
CO2(S) + H2O(S)         <=>	HOCO(S) + OH(S)	            4.22E+19	-0.05	17196.9	! Hauptmann
!!COV/O(S)			0.00	0.00	11703.5/
!COV/OH(S)			0.00	0.00	12420.0/
!COV/H2O(S)			0.00	0.00	-11464.6/
!REV/			1.75E+18	0.56	11942.3/
!!COV/O(S)			0.00	0.00	-21257.3/
!COV/OH(S)			0.00	0.00	-12420.0/
!COV/H2O(S)			0.00	0.00	16002.7/
! something fishy about these values.


!!!!!!!!!!!!!!!
!! OCHO REACTIONS
!!!!!!!!!!!!!!!

!OCHO + 2PT(S) 	        <=>	OCHO(S)	                    4.64E-02	0.201	0.0
!STICK
!REV/                                                    1.52E+13	-0.201	53000/

!CO2(S) + H(S) 	        <=>	OCHO(S)	                    4.57E+20	-0.422	18500
!REV/                                                    8.07E+09	0.422	0.0/
!CO2(S) + H(S) 	        <=>	OCHO(S)	                    6.50E+19	-0.08	17913.5	! Hauptmann
!COV/H(S)			0.00	0.00	-3105.0/
!REV/			8.16E+09	0.42	0.0/
! cov term is unstabilizing

!CO2(S) + OH(S) + PT(S) 	<=>	OCHO(S) + O(S)	            2.17E+27	0.236	36800
!REV/                                                    2.29E+20	-0.236	0.0/
!CO2(S) + OH(S) + PT(S) 	<=>	OCHO(S) + O(S)	            5.80E+28	-0.34	36304.6	! Hauptmann
!COV/O(S)			0.00	0.00	-16958.1/
!COV/H2O(S)			0.00	0.00	25078.8/
!REV/			1.48E+20	-0.16	0.0/
! cov term is unstabilizing

!CO2(S) + H2O(S) + PT(S) <=>	OCHO(S) + OH(S)	            8.02E+27	0.095	25800
!REV/                                                    6.18E+19	-0.095	3000/
!CO2(S) + H2O(S) + PT(S) <=>	OCHO(S) + OH(S)	            1.07E+29	-0.36	25556.5	! Hauptmann
!!COV/O(S)			0.00	0.00	11942.3/
!COV/OH(S)			0.00	0.00	12420.0/
!COV/H2O(S)			0.00	0.00	-11464.6/
!REV/			2.41E+19	0.07	3105.0/
!!COV/O(S)			0.00	0.00	-21018.4/
!COV/OH(S)			0.00	0.00	-12420.0/
!COV/H2O(S)			0.00	0.00	16002.7/

END
