units(length='cm', time='s', quantity='mol', act_energy='kcal/mol')

ideal_gas(name='gas',
          elements="H D T C Ci O Oi N Ne Ar He Si S Cl X",
          species="""n-heptane   Ar          He          Ne
                     N2          C2H4(2)     C4H8-1(3)   C4H8-2(4)
                     C4H6(7)     C3H6(32)    H2(68)      C4H8(121)
                     CH4(170)    C5H10(171)  C5H10(172)  C5H10(173)
                     C2H6(177)   C6H12(181)  C6H12(185)  C3H8(188)
                     C4H10(189)  C7H14(344)  C7H14(345)  C5H12(351)
                     C6H14(357)  C7H14(364)  C4H10(370)  C5H12(371)
                     C6H14(380)  C6H14(381)  S(1048)     S(1334)
                     S(2088)     S(2095)     S(2096)     S(2133)
                     S(2144)     S(2151)     S(2152)     S(2189)
                     S(2190)     S(2204)     S(2205)     S(2213)
                     S(2214)     S(2252)     S(2253)     S(2274)
                     S(2275)     S(2313)     S(2314)     S(2315)
                     S(2316)     S(2328)     S(2329)     S(2338)
                     S(2377)     S(2378)     S(2392)     S(2400)
                     S(2437)     S(2438)     S(2439)     S(2440)
                     S(2449)     S(2450)     S(2458)     S(2467)
                     S(2506)     S(2507)     S(2509)     S(2512)
                     S(2523)     S(2532)     S(2569)     S(2570)
                     S(2571)     S(2572)     S(2573)     S(2574)
                     S(2575)     S(2576)     S(2594)     S(2595)
                     S(2596)     S(2628)     S(2659)     S(2660)
                     S(2696)     S(2711)     S(2731)     S(2806)
                     S(2831)     S(2902)     S(2929)     S(3018)
                     S(4376)     S(4652)     S(4653)     S(4654)
                     S(4655)     S(4657)     S(4658)     S(4659)
                     S(4672)     S(4721)     S(4722)     S(4724)
                     S(4741)     S(4742)     S(4743)     S(4745)
                     S(4765)     S(4766)     S(4824)     S(4828)
                     S(4886)     S(4888)     S(4890)     S(4892)
                     S(4905)     S(5431)     S(5533)     S(5614)
                     S(5702)     S(5772)""",
          reactions='gas-*',
          initial_state=state(temperature=300.0, pressure=OneAtm))

ideal_interface(name='surface1',
                elements="H D T C Ci O Oi N Ne Ar He Si S Cl X",
                species="""X(1)        HX(5)       C2H3X(37)   allylX(38)
                          CH3X(39)    C2H5X(40)   C4H7X(41)   C4H7X(42)
                          C4H7X(43)   C4H7X(44)   C3H5X(45)   C4H7X(46)
                          C4H7X(47)   C4H9X(64)   C4H9X(65)   C6H11X(72)
                          C6H11X(73)  C4H7X(95)   C6H11X(96)  C3H5X(115)
                          SX(117)     C4H7X(132)  C4H9X(147)  C4H9X(148)
                          SX(150)     C3H7X(166)  SX(167)     SX(168)
                          SX(169)     SX(175)     SX(176)     SX(178)
                          SX(179)     SX(180)     SX(186)     SX(187)
                          C3H7X(248)  C5H9X(249)  C5H9X(250)  SX(267)
                          SX(270)     SX(271)     SX(340)     SX(341)
                          SX(342)     SX(343)     SX(349)     SX(350)
                          SX(352)     SX(353)     SX(359)     SX(360)
                          SX(361)     SX(375)     SX(376)     C4H5X(388)
                          C4H5X(389)  C5H9X(424)  C6H9X(457)  C5H9X(518)
                          C5H9X(519)  SX(551)     SX(570)     SX(571)
                          SX(572)     SX(573)     SX(621)     SX(656)
                          SX(694)     SX(695)     SX(696)     SX(773)
                          SX(774)     SX(775)     SX(1120)    SX(1451)
                          SX(1452)    SX(1471)    SX(1575)    SX(1576)
                          SX(1595)    SX(1668)    SX(1723)    SX(1779)
                          SX(1780)    SX(1781)    SX(1953)    SX(2077)
                          SX(2080)    SX(2090)    SX(2091)    SX(2135)
                          SX(2136)    SX(2137)    SX(2138)    SX(2142)
                          SX(2143)    SX(2146)    SX(2147)    SX(2193)
                          SX(2208)    SX(2209)    SX(2256)    SX(2257)
                          SX(2258)    SX(2269)    SX(2270)    SX(2514)
                          SX(2515)    SX(2516)    SX(2527)    SX(2528)
                          SX(2597)    SX(2598)    SX(2602)    SX(2604)
                          SX(2629)    SX(2631)    SX(2633)    SX(2635)
                          SX(2637)    SX(2661)    SX(2662)    SX(2681)
                          SX(2684)    SX(2733)    SX(2735)    SX(2758)
                          SX(2761)    SX(2782)    SX(2807)    SX(2855)
                          SX(2856)    SX(2879)    SX(2881)    SX(2885)
                          SX(2903)    SX(2906)    SX(2916)    SX(2933)
                          SX(3019)    SX(3020)    SX(3039)    SX(3227)
                          SX(3252)    SX(3258)    SX(3478)    SX(4077)
                          SX(4282)    SX(4283)    SX(4285)    SX(4291)
                          SX(4306)    SX(4307)    SX(4327)    SX(4369)
                          SX(4373)    SX(4381)    SX(4419)    SX(4426)
                          SX(4427)    SX(4502)    SX(4516)    SX(4517)
                          SX(4518)    SX(4532)    SX(4558)    SX(6012)
                          SX(12559)""",
                site_density=2.72e-09,
                phases="gas",
          reactions='surface1-*',
                initial_state=state(temperature=300.0, pressure=OneAtm))

#-------------------------------------------------------------------------------
# Element data
#-------------------------------------------------------------------------------

element(symbol=u'X', atomic_mass=195.083)
element(symbol=u'Ci', atomic_mass=13.003)
element(symbol=u'D', atomic_mass=2.014)
element(symbol=u'Oi', atomic_mass=18.0)
element(symbol=u'T', atomic_mass=3.016)
#-------------------------------------------------------------------------------
# Species data
#-------------------------------------------------------------------------------

species(name=u'n-heptane',
        atoms='H:16 C:7',
        thermo=(NASA([100.00, 1262.73],
                     [-2.91681405E-03,  7.69373649E-02, -3.48025563E-05,
                       1.86095180E-09,  2.01573617E-12, -2.57829342E+04,
                       3.00312148E+01]),
                NASA([1262.73, 5000.00],
                     [ 1.38377915E+01,  4.85945016E-02, -1.95474548E-05,
                       3.52837178E-09, -2.39064676E-13, -3.05141556E+04,
                      -4.48642836E+01])))

species(name=u'Ar',
        atoms='Ar:1',
        thermo=(NASA([200.00, 1000.00],
                     [ 2.50000000E+00,  0.00000000E+00,  0.00000000E+00,
                       0.00000000E+00,  0.00000000E+00, -7.45375000E+02,
                       4.37967000E+00]),
                NASA([1000.00, 6000.00],
                     [ 2.50000000E+00,  0.00000000E+00,  0.00000000E+00,
                       0.00000000E+00,  0.00000000E+00, -7.45375000E+02,
                       4.37967000E+00])))

species(name=u'He',
        atoms='He:1',
        thermo=(NASA([200.00, 1000.00],
                     [ 2.50000000E+00,  0.00000000E+00,  0.00000000E+00,
                       0.00000000E+00,  0.00000000E+00, -7.45375000E+02,
                       9.28724000E-01]),
                NASA([1000.00, 6000.00],
                     [ 2.50000000E+00,  0.00000000E+00,  0.00000000E+00,
                       0.00000000E+00,  0.00000000E+00, -7.45375000E+02,
                       9.28724000E-01])))

species(name=u'Ne',
        atoms='Ne:1',
        thermo=(NASA([200.00, 1000.00],
                     [ 2.50000000E+00,  0.00000000E+00,  0.00000000E+00,
                       0.00000000E+00,  0.00000000E+00, -7.45375000E+02,
                       3.35532000E+00]),
                NASA([1000.00, 6000.00],
                     [ 2.50000000E+00,  0.00000000E+00,  0.00000000E+00,
                       0.00000000E+00,  0.00000000E+00, -7.45375000E+02,
                       3.35532000E+00])))

species(name=u'N2',
        atoms='N:2',
        thermo=(NASA([200.00, 1000.00],
                     [ 3.53101000E+00, -1.23661000E-04, -5.02999000E-07,
                       2.43531000E-09, -1.40881000E-12, -1.04698000E+03,
                       2.96747000E+00]),
                NASA([1000.00, 6000.00],
                     [ 2.95258000E+00,  1.39690000E-03, -4.92632000E-07,
                       7.86010000E-11, -4.60755000E-15, -9.23949000E+02,
                       5.87189000E+00])))

species(name=u'C2H4(2)',
        atoms='H:4 C:2',
        thermo=(NASA([100.00, 979.36],
                     [ 3.97471606E+00, -4.75844285E-03,  4.16783770E-05,
                      -4.51392516E-08,  1.54224761E-11,  4.91540746E+03,
                       3.62430844E+00]),
                NASA([979.36, 5000.00],
                     [ 3.55660610E+00,  1.10627464E-02, -4.17019079E-06,
                       7.85586770E-10, -5.70060829E-14,  4.32046489E+03,
                       2.17719479E+00])))

species(name=u'C4H8-1(3)',
        atoms='H:8 C:4',
        thermo=(NASA([100.00, 1007.28],
                     [ 2.58772906E+00,  2.32777969E-02,  1.93412349E-05,
                      -3.55496333E-08,  1.36906009E-11, -1.91872926E+03,
                       1.45750618E+01]),
                NASA([1007.28, 5000.00],
                     [ 7.20517168E+00,  2.36361568E-02, -9.03150028E-06,
                       1.65392666E-09, -1.16019260E-13, -3.79733937E+03,
                      -1.24426257E+01])))

species(name=u'C4H8-2(4)',
        atoms='H:8 C:4',
        thermo=(NASA([100.00, 1157.79],
                     [ 2.51998327E+00,  2.76812799E-02,  9.43783469E-07,
                      -1.25009101E-08,  4.67144666E-12, -3.34374767E+03,
                       1.30195623E+01]),
                NASA([1157.79, 5000.00],
                     [ 6.04225708E+00,  2.60072350E-02, -1.04843374E-05,
                       1.90880922E-09, -1.30600505E-13, -4.86276511E+03,
                      -7.52715109E+00])))

species(name=u'C4H6(7)',
        atoms='H:6 C:4',
        thermo=(NASA([100.00, 946.05],
                     [ 2.80599310E+00,  1.02584471E-02,  6.17260255E-05,
                      -9.01642687E-08,  3.59116961E-11,  1.16584972E+04,
                       1.20621434E+01]),
                NASA([946.05, 5000.00],
                     [ 1.24693720E+01,  1.00553901E-02, -2.41206872E-06,
                       4.57077303E-10, -3.93160571E-14,  8.01077795E+03,
                      -4.36374720E+01])))

species(name=u'C3H6(32)',
        atoms='H:6 C:3',
        thermo=(NASA([100.00, 983.75],
                     [ 3.31912102E+00,  8.17958674E-03,  3.34736123E-05,
                      -4.36193684E-08,  1.58213364E-11,  7.49325328E+02,
                       9.54025058E+00]),
                NASA([983.75, 5000.00],
                     [ 5.36755173E+00,  1.70743019E-02, -6.35107626E-06,
                       1.16619529E-09, -8.27620279E-14, -4.87138326E+02,
                      -4.54467529E+00])))

species(name=u'H2(68)',
        atoms='H:2',
        thermo=(NASA([100.00, 1959.08],
                     [ 3.43536412E+00,  2.12710353E-04, -2.78625043E-07,
                       3.40267167E-10, -7.76031998E-14, -1.03135984E+03,
                      -3.90841732E+00]),
                NASA([1959.08, 5000.00],
                     [ 2.78816583E+00,  5.87640942E-04,  1.59010417E-07,
                      -5.52739026E-11,  4.34310984E-15, -5.96144270E+02,
                       1.12732655E-01])))

species(name=u'C4H8(121)',
        atoms='H:8 C:4',
        thermo=(NASA([100.00, 1061.33],
                     [ 2.52504770E+00,  2.64752782E-02,  7.08359238E-06,
                      -2.07731462E-08,  8.00430055E-12, -4.02607130E+03,
                       1.28857274E+01]),
                NASA([1061.33, 5000.00],
                     [ 6.48672669E+00,  2.49943921E-02, -9.83283171E-06,
                       1.79343299E-09, -1.24008235E-13, -5.62452310E+03,
                      -1.00316397E+01])))

species(name=u'CH4(170)',
        atoms='H:4 C:1',
        thermo=(NASA([100.00, 1084.12],
                     [ 4.20541524E+00, -5.35557362E-03,  2.51123265E-05,
                      -2.13762843E-08,  5.97523937E-12, -1.01619433E+04,
                      -9.21279283E-01]),
                NASA([1084.12, 5000.00],
                     [ 9.08265721E-01,  1.14540858E-02, -4.57173828E-06,
                       8.29191671E-10, -5.66314895E-14, -9.71997444E+03,
                       1.39930944E+01])))

species(name=u'C5H10(171)',
        atoms='H:10 C:5',
        thermo=(NASA([100.00, 1883.68],
                     [ 2.29195787E+00,  4.21076449E-02, -1.49304794E-05,
                      -1.22102583E-10,  5.99441346E-13, -4.98138150E+03,
                       1.67887076E+01]),
                NASA([1883.68, 5000.00],
                     [ 1.47438472E+01,  2.72460315E-02, -1.23172689E-05,
                       2.21660273E-09, -1.44084857E-13, -1.17269008E+04,
                      -5.66226025E+01])))

species(name=u'C5H10(172)',
        atoms='H:10 C:5',
        thermo=(NASA([100.00, 960.03],
                     [ 1.92494941E+00,  3.23872757E-02,  3.28626489E-05,
                      -6.30221575E-08,  2.59714460E-11, -5.50776492E+03,
                       1.86664331E+01]),
                NASA([960.03, 5000.00],
                     [ 1.12167303E+01,  2.64314616E-02, -9.01591566E-06,
                       1.60298644E-09, -1.13436933E-13, -8.80144986E+03,
                      -3.36443365E+01])))

species(name=u'C5H10(173)',
        atoms='H:10 C:5',
        thermo=(NASA([100.00, 1065.88],
                     [ 1.83973645E+00,  3.88165649E-02,  3.95415802E-06,
                      -2.48620336E-08,  1.01608534E-11, -6.45875726E+03,
                       1.88194915E+01]),
                NASA([1065.88, 5000.00],
                     [ 8.87931728E+00,  3.15047857E-02, -1.26438740E-05,
                       2.33666558E-09, -1.63001335E-13, -9.04475166E+03,
                      -2.06827600E+01])))

species(name=u'C2H6(177)',
        atoms='H:6 C:2',
        thermo=(NASA([100.00, 1012.42],
                     [ 3.72239291E+00,  1.65083841E-03,  3.44175530E-05,
                      -3.76858229E-08,  1.24450657E-11, -1.15575901E+04,
                       4.68247999E+00]),
                NASA([1012.42, 5000.00],
                     [ 2.82848257E+00,  1.73040568E-02, -6.73334245E-06,
                       1.23742024E-09, -8.65676410E-14, -1.19978080E+04,
                       5.93811707E+00])))

species(name=u'C6H12(181)',
        atoms='H:12 C:6',
        thermo=(NASA([100.00, 2065.44],
                     [ 1.68598658E+00,  5.58664307E-02, -2.53057821E-05,
                       3.98016615E-09, -6.94904807E-14, -7.81739466E+03,
                       2.09919882E+01]),
                NASA([2065.44, 5000.00],
                     [ 2.13486140E+01,  2.79136045E-02, -1.23596487E-05,
                       2.17527434E-09, -1.38347372E-13, -1.80997789E+04,
                      -9.33598720E+01])))

species(name=u'C6H12(185)',
        atoms='H:12 C:6',
        thermo=(NASA([100.00, 3144.72],
                     [ 1.62486600E+00,  5.81706891E-02, -2.94074668E-05,
                       6.41453677E-09, -5.27511383E-13, -9.95070725E+03,
                       2.05730324E+01]),
                NASA([3144.72, 5000.00],
                     [ 2.63049846E+01,  2.09689465E-02, -8.89163385E-06,
                       1.47783715E-09, -8.83519412E-14, -2.26006402E+04,
                      -1.22203751E+02])))

species(name=u'C3H8(188)',
        atoms='H:8 C:3',
        thermo=(NASA([100.00, 989.99],
                     [ 3.06336167E+00,  1.29214561E-02,  3.47032808E-05,
                      -4.70946154E-08,  1.71384141E-11, -1.43905789E+04,
                       1.07835592E+01]),
                NASA([989.99, 5000.00],
                     [ 5.60440043E+00,  2.19528785E-02, -8.22080610E-06,
                       1.50103993E-09, -1.05635358E-13, -1.58394038E+04,
                      -6.22623300E+00])))

species(name=u'C4H10(189)',
        atoms='H:10 C:4',
        thermo=(NASA([100.00, 1147.60],
                     [ 2.16918413E+00,  3.43904632E-02, -1.61564236E-06,
                      -1.30726562E-08,  5.17350451E-12, -1.72505136E+04,
                       1.46546701E+01]),
                NASA([1147.60, 5000.00],
                     [ 6.78903089E+00,  3.03598162E-02, -1.21262050E-05,
                       2.19945025E-09, -1.50289312E-13, -1.91057969E+04,
                      -1.17329103E+01])))

species(name=u'C7H14(344)',
        atoms='H:14 C:7',
        thermo=(NASA([100.00, 1137.87],
                     [ 3.77000199E-01,  6.84581137E-02, -2.35458993E-05,
                      -8.78916695E-09,  5.80698771E-12, -1.04276840E+04,
                       2.98245651E+01]),
                NASA([1137.87, 5000.00],
                     [ 1.29448813E+01,  4.42102095E-02, -1.78572583E-05,
                       3.27300063E-09, -2.25635477E-13, -1.45781742E+04,
                      -3.81015599E+01])))

species(name=u'C7H14(345)',
        atoms='H:14 C:7',
        thermo=(NASA([100.00, 1054.67],
                     [ 4.65448694E-01,  6.48479495E-02, -9.56906733E-06,
                      -2.58210160E-08,  1.23868753E-11, -1.13879550E+04,
                       2.92560896E+01]),
                NASA([1054.67, 5000.00],
                     [ 1.32840013E+01,  4.31737590E-02, -1.70613062E-05,
                       3.13615581E-09, -2.18574261E-13, -1.55902553E+04,
                      -4.03721053E+01])))

species(name=u'C5H12(351)',
        atoms='H:12 C:5',
        thermo=(NASA([100.00, 1083.72],
                     [ 1.61174582E+00,  4.32467983E-02,  5.74950528E-06,
                      -2.75134571E-08,  1.08080045E-11, -2.00565292E+04,
                       1.98944429E+01]),
                NASA([1083.72, 5000.00],
                     [ 8.53683820E+00,  3.80814435E-02, -1.53303035E-05,
                       2.81977580E-09, -1.95507768E-13, -2.27551513E+04,
                      -1.95975419E+01])))

species(name=u'C6H14(357)',
        atoms='H:14 C:6',
        thermo=(NASA([100.00, 1048.16],
                     [ 8.83603407E-01,  5.70449582E-02, -2.15511769E-06,
                      -2.85512365E-08,  1.26618641E-11, -2.27982664E+04,
                       2.50352381E+01]),
                NASA([1048.16, 5000.00],
                     [ 1.11354266E+01,  4.25244017E-02, -1.65829595E-05,
                       3.01864905E-09, -2.09013581E-13, -2.62988561E+04,
                      -3.13529752E+01])))

species(name=u'C7H14(364)',
        atoms='H:14 C:7',
        thermo=(NASA([100.00, 1018.80],
                     [ 5.34658699E-01,  6.16863006E-02,  2.61082972E-06,
                      -4.06982985E-08,  1.82079458E-11, -1.20736775E+04,
                       2.80326906E+01]),
                NASA([1018.80, 5000.00],
                     [ 1.38818176E+01,  4.18582790E-02, -1.61573466E-05,
                       2.96709975E-09, -2.08207129E-13, -1.64838867E+04,
                      -4.49052024E+01])))

species(name=u'C4H10(370)',
        atoms='H:10 C:4',
        thermo=(NASA([100.00, 987.08],
                     [ 2.18594095E+00,  3.04312883E-02,  1.83387931E-05,
                      -4.04090927E-08,  1.64481872E-11, -1.82080408E+04,
                       1.37947641E+01]),
                NASA([987.08, 5000.00],
                     [ 8.84811268E+00,  2.61183046E-02, -9.57929598E-06,
                       1.72895160E-09, -1.21006821E-13, -2.06283634E+04,
                      -2.38575760E+01])))

species(name=u'C5H12(371)',
        atoms='H:12 C:5',
        thermo=(NASA([100.00, 1035.89],
                     [ 1.72369892E+00,  4.01626686E-02,  1.63603121E-05,
                      -3.88326196E-08,  1.49780300E-11, -2.08560016E+04,
                       1.91510657E+01]),
                NASA([1035.89, 5000.00],
                     [ 7.87936773E+00,  3.91979316E-02, -1.52647178E-05,
                       2.77213157E-09, -1.91665486E-13, -2.33548825E+04,
                      -1.66693711E+01])))

species(name=u'C6H14(380)',
        atoms='H:14 C:6',
        thermo=(NASA([100.00, 1002.79],
                     [ 9.62511884E-01,  5.35099673E-02,  1.32037900E-05,
                      -4.70268617E-08,  1.98557427E-11, -2.36936864E+04,
                       2.41377511E+01]),
                NASA([1002.79, 5000.00],
                     [ 1.14867705E+01,  4.22488291E-02, -1.59010927E-05,
                       2.87000033E-09, -1.99356317E-13, -2.73489440E+04,
                      -3.43661848E+01])))

species(name=u'C6H14(381)',
        atoms='H:14 C:6',
        thermo=(NASA([100.00, 979.30],
                     [ 1.15761484E+00,  4.88425073E-02,  2.64137737E-05,
                      -6.01104569E-08,  2.45806956E-11, -2.37935343E+04,
                       2.21623322E+01]),
                NASA([979.30, 5000.00],
                     [ 1.04141051E+01,  4.37548510E-02, -1.59118175E-05,
                       2.82122166E-09, -1.94532762E-13, -2.71755416E+04,
                      -3.03122062E+01])))

species(name=u'S(1048)',
        atoms='H:14 C:7',
        thermo=(NASA([100.00, 1054.67],
                     [ 4.65448694E-01,  6.48479495E-02, -9.56906733E-06,
                      -2.58210160E-08,  1.23868753E-11, -1.13879550E+04,
                       2.85629425E+01]),
                NASA([1054.67, 5000.00],
                     [ 1.32840013E+01,  4.31737590E-02, -1.70613062E-05,
                       3.13615581E-09, -2.18574261E-13, -1.55902553E+04,
                      -4.10652525E+01])))

species(name=u'S(1334)',
        atoms='H:14 C:7',
        thermo=(NASA([100.00, 1064.53],
                     [ 4.62611058E-01,  6.51511088E-02, -1.10907613E-05,
                      -2.36780577E-08,  1.14817237E-11, -1.11141761E+04,
                       2.92323618E+01]),
                NASA([1064.53, 5000.00],
                     [ 1.31480102E+01,  4.35198650E-02, -1.72954075E-05,
                       3.18164942E-09, -2.21522846E-13, -1.52901125E+04,
                      -3.96892243E+01])))

species(name=u'S(2088)',
        atoms='H:16 C:7',
        thermo=(NASA([100.00, 1120.69],
                     [ 1.06339491E-01,  7.34420479E-02, -2.20939297E-05,
                      -1.28197435E-08,  7.39373087E-12, -2.60680432E+04,
                       3.00410584E+01]),
                NASA([1120.69, 5000.00],
                     [ 1.31589528E+01,  4.92569317E-02, -1.97080319E-05,
                       3.59805544E-09, -2.47725029E-13, -3.04004633E+04,
                      -4.06941546E+01])))

species(name=u'S(2095)',
        atoms='H:18 C:8',
        thermo=(NASA([100.00, 1206.86],
                     [-6.89609402E-01,  8.98708288E-02, -4.11358366E-05,
                       1.16625302E-09,  3.08116522E-12, -2.88987652E+04,
                       3.44576804E+01]),
                NASA([1206.86, 5000.00],
                     [ 1.56711370E+01,  5.50966005E-02, -2.20915345E-05,
                       4.00127562E-09, -2.72607063E-13, -3.42643584E+04,
                      -5.34184695E+01])))

species(name=u'S(2096)',
        atoms='H:18 C:8',
        thermo=(NASA([100.00, 1103.64],
                     [-5.78595688E-01,  8.63233750E-02, -2.81114488E-05,
                      -1.40871769E-08,  8.76045900E-12, -2.95864558E+04,
                       3.37703392E+01]),
                NASA([1103.64, 5000.00],
                     [ 1.53084896E+01,  5.52866759E-02, -2.20051288E-05,
                       4.01682589E-09, -2.77031625E-13, -3.47097411E+04,
                      -5.17661085E+01])))

species(name=u'S(2133)',
        atoms='H:22 C:10',
        thermo=(NASA([100.00, 1299.84],
                     [-2.22029643E+00,  1.19690246E-01, -6.76359035E-05,
                       1.53154186E-08, -3.09930326E-13, -3.48430007E+04,
                       4.41740610E+01]),
                NASA([1299.84, 5000.00],
                     [ 2.12074205E+01,  6.56289243E-02, -2.60595620E-05,
                       4.66464606E-09, -3.14226021E-13, -4.24568491E+04,
                      -8.08547775E+01])))

species(name=u'S(2144)',
        atoms='H:16 C:8',
        thermo=(NASA([100.00, 1248.81],
                     [-4.26647485E-01,  8.49512374E-02, -4.26977778E-05,
                       5.19306335E-09,  1.55005691E-12, -1.32580173E+04,
                       3.49638273E+01]),
                NASA([1248.81, 5000.00],
                     [ 1.57326579E+01,  4.96311262E-02, -2.00187569E-05,
                       3.62701466E-09, -2.46632049E-13, -1.85758476E+04,
                      -5.17182159E+01])))

species(name=u'S(2151)',
        atoms='H:18 C:8',
        thermo=(NASA([100.00, 1950.39],
                     [-8.85253472E-01,  9.40525134E-02, -5.49401942E-05,
                       1.58319910E-08, -1.84186830E-12, -2.86089074E+04,
                       3.54764932E+01]),
                NASA([1950.39, 5000.00],
                     [ 2.30699897E+01,  4.49237816E-02, -1.71567286E-05,
                       2.91725571E-09, -1.86477663E-13, -3.79533974E+04,
                      -9.60967099E+01])))

species(name=u'S(2152)',
        atoms='H:18 C:8',
        thermo=(NASA([100.00, 1206.86],
                     [-6.89609402E-01,  8.98708288E-02, -4.11358366E-05,
                       1.16625302E-09,  3.08116522E-12, -2.93013403E+04,
                       3.44576804E+01]),
                NASA([1206.86, 5000.00],
                     [ 1.56711370E+01,  5.50966005E-02, -2.20915345E-05,
                       4.00127562E-09, -2.72607063E-13, -3.46669336E+04,
                      -5.34184695E+01])))

species(name=u'S(2189)',
        atoms='H:22 C:10',
        thermo=(NASA([100.00, 1793.77],
                     [-2.19595354E+00,  1.21625503E-01, -7.49793829E-05,
                       2.32391144E-08, -2.93766241E-12, -3.45637326E+04,
                       4.50702418E+01]),
                NASA([1793.77, 5000.00],
                     [ 2.54706551E+01,  5.99302565E-02, -2.33878126E-05,
                       4.06464869E-09, -2.65277164E-13, -4.44891810E+04,
                      -1.04571130E+02])))

species(name=u'S(2190)',
        atoms='H:22 C:10',
        thermo=(NASA([100.00, 1753.74],
                     [-1.87595607E+00,  1.20581277E-01, -7.39939940E-05,
                       2.28626031E-08, -2.90803314E-12, -3.42986299E+04,
                       4.34818026E+01]),
                NASA([1753.74, 5000.00],
                     [ 2.27562749E+01,  6.43989451E-02, -2.59402712E-05,
                       4.59541085E-09, -3.03992073E-13, -4.29383112E+04,
                      -8.91915753E+01])))

species(name=u'S(2204)',
        atoms='H:14 C:6',
        thermo=(NASA([100.00, 1237.11],
                     [ 9.36204265E-01,  5.80630250E-02, -1.05197660E-05,
                      -1.36320323E-08,  5.73438090E-12, -2.34249411E+04,
                       2.40002576E+01]),
                NASA([1237.11, 5000.00],
                     [ 1.03159905E+01,  4.66440696E-02, -1.96015321E-05,
                       3.61730433E-09, -2.48224262E-13, -2.71926741E+04,
                      -2.90957696E+01])))

species(name=u'S(2205)',
        atoms='H:16 C:7',
        thermo=(NASA([100.00, 1120.69],
                     [ 1.06339491E-01,  7.34420479E-02, -2.20939297E-05,
                      -1.28197435E-08,  7.39373087E-12, -2.56654680E+04,
                       2.82492990E+01]),
                NASA([1120.69, 5000.00],
                     [ 1.31589528E+01,  4.92569317E-02, -1.97080319E-05,
                       3.59805544E-09, -2.47725029E-13, -2.99978881E+04,
                      -4.24859140E+01])))

species(name=u'S(2213)',
        atoms='H:18 C:8',
        thermo=(NASA([100.00, 1206.86],
                     [-6.89609402E-01,  8.98708288E-02, -4.11358366E-05,
                       1.16625302E-09,  3.08116522E-12, -2.84961900E+04,
                       3.44576804E+01]),
                NASA([1206.86, 5000.00],
                     [ 1.56711370E+01,  5.50966005E-02, -2.20915345E-05,
                       4.00127562E-09, -2.72607063E-13, -3.38617833E+04,
                      -5.34184695E+01])))

species(name=u'S(2214)',
        atoms='H:18 C:8',
        thermo=(NASA([100.00, 1103.64],
                     [-5.78595688E-01,  8.63233750E-02, -2.81114488E-05,
                      -1.40871769E-08,  8.76045900E-12, -2.91838807E+04,
                       3.30771920E+01]),
                NASA([1103.64, 5000.00],
                     [ 1.53084896E+01,  5.52866759E-02, -2.20051288E-05,
                       4.01682589E-09, -2.77031625E-13, -3.43071659E+04,
                      -5.24592556E+01])))

species(name=u'S(2252)',
        atoms='H:22 C:10',
        thermo=(NASA([100.00, 1299.84],
                     [-2.22029643E+00,  1.19690246E-01, -6.76359035E-05,
                       1.53154186E-08, -3.09930326E-13, -3.44404256E+04,
                       4.41740610E+01]),
                NASA([1299.84, 5000.00],
                     [ 2.12074205E+01,  6.56289243E-02, -2.60595620E-05,
                       4.66464606E-09, -3.14226021E-13, -4.20542739E+04,
                      -8.08547775E+01])))

species(name=u'S(2253)',
        atoms='H:22 C:10',
        thermo=(NASA([100.00, 1793.77],
                     [-2.19595354E+00,  1.21625503E-01, -7.49793829E-05,
                       2.32391144E-08, -2.93766241E-12, -3.41611574E+04,
                       4.43770946E+01]),
                NASA([1793.77, 5000.00],
                     [ 2.54706551E+01,  5.99302565E-02, -2.33878126E-05,