units(length='cm', time='s', quantity='mol', act_energy='kcal/mol')

ideal_gas(name='gas',
          elements="H D T C Ci O Oi N Ne Ar He Si S Cl X",
          species="""n-heptane   Ar          He          Ne
                     N2          C2H4(2)     C4H8-1(3)   C4H8-2(4)
                     C4H6(7)     C6H8(9)     C4H6a(55)   C6H10d(58)
                     C8H10(78)   C6H8(83)    C6H8(122)   C8H10(125)
                     C8H10(129)  C8H12(152)  C6H8(180)   S(303)
                     S(307)      S(729)      S(733)      S(914)
                     S(915)      S(1108)     S(1142)     S(1145)
                     S(1146)     S(1541)     S(1544)     S(1548)
                     S(1824)     S(1909)     S(1930)     S(2059)
                     S(2318)     S(2347)     S(2497)     S(2505)
                     S(2701)     S(2925)     S(2934)     S(2935)
                     S(3105)     S(4011)     S(4022)     S(4166)
                     S(4207)     S(4320)     S(4326)     S(4547)
                     S(5251)     S(5352)""",
          reactions='gas-*',
          initial_state=state(temperature=300.0, pressure=OneAtm))

ideal_interface(name='surface1',
                elements="H D T C Ci O Oi N Ne Ar He Si S Cl X",
                species="""X(1)        HX(5)       C2H3X(27)   C2H5X(30)
                          C4H7X(31)   C4H7X(32)   C4H7X(33)   C4H7X(34)
                          C4H9X(44)   C4H9X(45)   C4H5X(56)   C4H5X(57)
                          C6H9X(65)   C6H9X(66)   C6H9X(72)   C8H13X(75)
                          C8H11X(76)  C8H11X(77)  C6H9X(97)   C8H11X(99)
                          C6H9X(118)  SX(123)     SX(124)     SX(150)
                          C6H9X(159)  C6H9X(196)  SX(198)     SX(232)
                          C6H9X(294)  SX(297)     SX(301)     SX(302)
                          SX(312)     SX(347)     SX(385)     SX(386)
                          SX(480)     SX(481)     SX(482)     SX(483)
                          SX(484)     C4H7X(548)  C6H9X(586)  SX(593)
                          SX(603)     SX(640)     SX(641)     SX(727)
                          SX(728)     C6H9X(750)  C6H9X(751)  SX(829)
                          SX(865)     SX(905)     SX(906)     SX(908)
                          SX(912)     SX(913)     SX(924)     SX(925)
                          SX(942)     SX(1005)    SX(1028)    SX(1029)
                          SX(1031)    SX(1069)    SX(1100)    SX(1102)
                          SX(1106)    SX(1107)    SX(1135)    SX(1138)
                          SX(1143)    SX(1144)    SX(1271)    SX(1320)
                          SX(1473)    SX(1492)    SX(1493)    SX(1494)
                          SX(1495)    SX(1503)    SX(1535)    SX(1537)
                          SX(1542)    SX(1543)    SX(1577)    SX(1611)
                          SX(1634)    SX(1645)    SX(1646)    SX(1648)
                          SX(1719)    SX(1720)    SX(1721)    SX(1722)
                          SX(1723)    SX(1724)    SX(1725)    SX(1726)
                          SX(1734)    SX(1782)    SX(1806)    SX(1807)
                          SX(1808)    SX(1810)    SX(1818)    SX(1851)
                          SX(1852)    SX(1853)    SX(1854)    SX(1912)
                          SX(1966)    SX(1967)    SX(1968)    SX(1969)
                          SX(1971)    SX(1972)    SX(1973)    SX(1975)
                          SX(2085)    SX(2086)    SX(2104)    SX(2319)
                          SX(2320)    SX(2321)    SX(2361)    SX(2391)
                          SX(2419)    SX(2420)    SX(2421)    SX(2422)
                          SX(2500)    SX(2534)    SX(2535)    SX(2536)
                          SX(2538)    SX(2539)    SX(2543)    SX(2579)
                          SX(2618)    SX(2619)    SX(2620)    SX(2621)
                          SX(2622)    SX(2683)    SX(2739)    SX(2740)
                          SX(2741)    SX(2742)    SX(2761)    SX(2815)
                          SX(2848)    SX(2849)    SX(2850)    SX(2851)
                          SX(2852)    SX(2853)    SX(2894)    SX(2906)
                          SX(2928)    SX(3008)    SX(3030)    SX(3068)
                          SX(3069)    SX(3070)    SX(3071)    SX(3072)
                          SX(3073)    SX(3093)    SX(3094)    SX(3175)
                          SX(3215)    SX(3291)    SX(3292)    SX(3293)
                          SX(3294)    SX(3295)    SX(3351)    SX(3352)
                          SX(3353)    SX(3354)    SX(3355)    SX(3401)
                          SX(3427)    SX(3428)    SX(3466)    SX(3507)
                          SX(3595)    SX(3900)    SX(3919)    SX(3931)
                          SX(4014)    SX(4050)    SX(4051)    SX(4052)
                          SX(4053)    SX(4070)    SX(4072)    SX(4079)
                          SX(4097)    SX(4128)    SX(4155)    SX(4156)
                          SX(4157)    SX(4210)    SX(4241)    SX(4242)
                          SX(4243)    SX(4244)    SX(4290)    SX(4291)
                          SX(4292)    SX(4293)    SX(4360)    SX(4361)
                          SX(4397)    SX(4425)    SX(4439)    SX(4490)
                          SX(4491)    SX(4511)    SX(4512)    SX(4519)
                          SX(4520)    SX(4543)    SX(4545)    SX(4632)
                          SX(4633)    SX(4686)    SX(4687)    SX(4688)
                          SX(4689)    SX(4725)    SX(4726)    SX(4741)
                          SX(4742)    SX(4744)    SX(4850)    SX(4861)
                          SX(4967)    SX(4971)    SX(4973)    SX(4977)
                          SX(5024)    SX(5026)    SX(5104)    SX(5105)
                          SX(5142)    SX(5148)    SX(5177)    SX(5178)
                          SX(5204)    SX(5219)    SX(5240)    SX(5268)
                          SX(5293)    SX(5320)    SX(5326)    SX(5649)
                          SX(5650)    SX(5669)""",
                site_density=2.72e-09,
                phases="gas",
          reactions='surface1-*',
                initial_state=state(temperature=300.0, pressure=OneAtm))

#-------------------------------------------------------------------------------
# Element data
#-------------------------------------------------------------------------------

element(symbol=u'X', atomic_mass=195.083)
element(symbol=u'Ci', atomic_mass=13.003)
element(symbol=u'D', atomic_mass=2.014)
element(symbol=u'Oi', atomic_mass=18.0)
element(symbol=u'T', atomic_mass=3.016)
#-------------------------------------------------------------------------------
# Species data
#-------------------------------------------------------------------------------

species(name=u'n-heptane',
        atoms='H:16 C:7',
        thermo=(NASA([100.00, 1262.73],
                     [-2.91681405E-03,  7.69373649E-02, -3.48025563E-05,
                       1.86095180E-09,  2.01573617E-12, -2.57829342E+04,
                       3.00312148E+01]),
                NASA([1262.73, 5000.00],
                     [ 1.38377915E+01,  4.85945016E-02, -1.95474548E-05,
                       3.52837178E-09, -2.39064676E-13, -3.05141556E+04,
                      -4.48642836E+01])))

species(name=u'Ar',
        atoms='Ar:1',
        thermo=(NASA([200.00, 1000.00],
                     [ 2.50000000E+00,  0.00000000E+00,  0.00000000E+00,
                       0.00000000E+00,  0.00000000E+00, -7.45375000E+02,
                       4.37967000E+00]),
                NASA([1000.00, 6000.00],
                     [ 2.50000000E+00,  0.00000000E+00,  0.00000000E+00,
                       0.00000000E+00,  0.00000000E+00, -7.45375000E+02,
                       4.37967000E+00])))

species(name=u'He',
        atoms='He:1',
        thermo=(NASA([200.00, 1000.00],
                     [ 2.50000000E+00,  0.00000000E+00,  0.00000000E+00,
                       0.00000000E+00,  0.00000000E+00, -7.45375000E+02,
                       9.28724000E-01]),
                NASA([1000.00, 6000.00],
                     [ 2.50000000E+00,  0.00000000E+00,  0.00000000E+00,
                       0.00000000E+00,  0.00000000E+00, -7.45375000E+02,
                       9.28724000E-01])))

species(name=u'Ne',
        atoms='Ne:1',
        thermo=(NASA([200.00, 1000.00],
                     [ 2.50000000E+00,  0.00000000E+00,  0.00000000E+00,
                       0.00000000E+00,  0.00000000E+00, -7.45375000E+02,
                       3.35532000E+00]),
                NASA([1000.00, 6000.00],
                     [ 2.50000000E+00,  0.00000000E+00,  0.00000000E+00,
                       0.00000000E+00,  0.00000000E+00, -7.45375000E+02,
                       3.35532000E+00])))

species(name=u'N2',
        atoms='N:2',
        thermo=(NASA([200.00, 1000.00],
                     [ 3.53101000E+00, -1.23661000E-04, -5.02999000E-07,
                       2.43531000E-09, -1.40881000E-12, -1.04698000E+03,
                       2.96747000E+00]),
                NASA([1000.00, 6000.00],
                     [ 2.95258000E+00,  1.39690000E-03, -4.92632000E-07,
                       7.86010000E-11, -4.60755000E-15, -9.23949000E+02,
                       5.87189000E+00])))

species(name=u'C2H4(2)',
        atoms='H:4 C:2',
        thermo=(NASA([100.00, 979.36],
                     [ 3.97471606E+00, -4.75844285E-03,  4.16783770E-05,
                      -4.51392516E-08,  1.54224761E-11,  4.91540746E+03,
                       3.62430844E+00]),
                NASA([979.36, 5000.00],
                     [ 3.55660610E+00,  1.10627464E-02, -4.17019079E-06,
                       7.85586770E-10, -5.70060829E-14,  4.32046489E+03,
                       2.17719479E+00])))

species(name=u'C4H8-1(3)',
        atoms='H:8 C:4',
        thermo=(NASA([100.00, 1007.28],
                     [ 2.58772906E+00,  2.32777969E-02,  1.93412349E-05,
                      -3.55496333E-08,  1.36906009E-11, -1.91872926E+03,
                       1.45750618E+01]),
                NASA([1007.28, 5000.00],
                     [ 7.20517168E+00,  2.36361568E-02, -9.03150028E-06,
                       1.65392666E-09, -1.16019260E-13, -3.79733937E+03,
                      -1.24426257E+01])))

species(name=u'C4H8-2(4)',
        atoms='H:8 C:4',
        thermo=(NASA([100.00, 1157.79],
                     [ 2.51998327E+00,  2.76812799E-02,  9.43783469E-07,
                      -1.25009101E-08,  4.67144666E-12, -3.34374767E+03,
                       1.30195623E+01]),
                NASA([1157.79, 5000.00],
                     [ 6.04225708E+00,  2.60072350E-02, -1.04843374E-05,
                       1.90880922E-09, -1.30600505E-13, -4.86276511E+03,
                      -7.52715109E+00])))

species(name=u'C4H6(7)',
        atoms='H:6 C:4',
        thermo=(NASA([100.00, 946.05],
                     [ 2.80599310E+00,  1.02584471E-02,  6.17260255E-05,
                      -9.01642687E-08,  3.59116961E-11,  1.16584972E+04,
                       1.20621434E+01]),
                NASA([946.05, 5000.00],
                     [ 1.24693720E+01,  1.00553901E-02, -2.41206872E-06,
                       4.57077303E-10, -3.93160571E-14,  8.01077795E+03,
                      -4.36374720E+01])))

species(name=u'C6H8(9)',
        atoms='H:8 C:6',
        thermo=(NASA([100.00, 941.22],
                     [ 1.38427980E+00,  4.14411503E-02,  1.94287417E-05,
                      -6.16688700E-08,  2.86503633E-11,  1.76317461E+04,
                       1.93257509E+01]),
                NASA([941.22, 5000.00],
                     [ 1.69619680E+01,  1.57221707E-02, -4.10118367E-06,
                       6.95736344E-10, -5.26521484E-14,  1.29061672E+04,
                      -6.44097553E+01])))

species(name=u'C4H6a(55)',
        atoms='H:6 C:4',
        thermo=(NASA([100.00, 950.38],
                     [ 3.41327601E+00, -4.60830638E-03,  9.57205603E-05,
                      -1.18800574E-07,  4.44495312E-11,  1.74039828E+04,
                       1.01517556E+01]),
                NASA([950.38, 5000.00],
                     [ 9.72156091E+00,  1.36879055E-02, -3.93842260E-06,
                       7.58710118E-10, -6.16013131E-14,  1.41795804E+04,
                      -3.06164436E+01])))

species(name=u'C6H10d(58)',
        atoms='H:10 C:6',
        thermo=(NASA([100.00, 969.70],
                     [ 2.39493639E+00,  1.31308716E-02,  1.02019898E-04,
                      -1.35266841E-07,  5.06735576E-11, -2.55363631E+03,
                       1.63461006E+01]),
                NASA([969.70, 5000.00],
                     [ 1.20193596E+01,  2.96991246E-02, -1.06504175E-05,
                       2.03502649E-09, -1.52378829E-13, -7.06570658E+03,
                      -4.34309725E+01])))

species(name=u'C8H10(78)',
        atoms='H:10 C:8',
        thermo=(NASA([100.00, 941.38],
                     [ 8.64508879E-02,  6.59507123E-02,  1.49007776E-06,
                      -6.06862449E-08,  3.13845046E-11,  2.39088929E+04,
                       2.66192822E+01]),
                NASA([941.38, 5000.00],
                     [ 2.28417755E+01,  1.96704891E-02, -5.08803462E-06,
                       8.53682038E-10, -6.42382395E-14,  1.73909786E+04,
                      -9.36509497E+01])))

species(name=u'C6H8(83)',
        atoms='H:8 C:6',
        thermo=(NASA([100.00, 982.45],
                     [ 2.05482741E+00,  2.86394809E-02,  3.83671565E-05,
                      -6.66308438E-08,  2.64365037E-11,  2.60818009E+04,
                       1.79213926E+01]),
                NASA([982.45, 5000.00],
                     [ 1.14504006E+01,  2.51395054E-02, -9.35048470E-06,
                       1.75511598E-09, -1.27609536E-13,  2.25584277E+04,
                      -3.57764240E+01])))

species(name=u'C6H8(122)',
        atoms='H:8 C:6',
        thermo=(NASA([100.00, 972.94],
                     [ 1.82686070E+00,  3.47046353E-02,  2.41070171E-05,
                      -5.44847920E-08,  2.29388832E-11,  1.99100661E+04,
                       1.81393315E+01]),
                NASA([972.94, 5000.00],
                     [ 1.21686202E+01,  2.40472785E-02, -8.58151834E-06,
                       1.57034031E-09, -1.12795334E-13,  1.63897115E+04,
                      -3.92195169E+01])))

species(name=u'C8H10(125)',
        atoms='H:10 C:8',
        thermo=(NASA([100.00, 966.00],
                     [ 5.26364552E-01,  5.92493286E-02,  6.02658334E-06,
                      -5.32875938E-08,  2.55662369E-11,  2.61873255E+04,
                       2.61353490E+01]),
                NASA([966.00, 5000.00],
                     [ 1.80461436E+01,  2.79985777E-02, -9.56971683E-06,
                       1.72854036E-09, -1.24398543E-13,  2.08757672E+04,
                      -6.77541641E+01])))

species(name=u'C8H10(129)',
        atoms='H:10 C:8',
        thermo=(NASA([100.00, 1006.91],
                     [ 9.59099136E-01,  5.26052795E-02,  1.05118295E-05,
                      -4.60808495E-08,  1.99632153E-11,  2.84660811E+04,
                       2.42924801E+01]),
                NASA([1006.91, 5000.00],
                     [ 1.34171277E+01,  3.60526403E-02, -1.38971709E-05,
                       2.56761905E-09, -1.81631637E-13,  2.42875578E+04,
                      -4.41873377E+01])))

species(name=u'C8H12(152)',
        atoms='H:12 C:8',
        thermo=(NASA([100.00, 1066.82],
                     [-6.90279206E-02,  7.77631354E-02, -4.25469002E-05,
                       2.07979121E-09,  4.19202863E-12,  1.30198536E+04,
                       2.96530167E+01]),
                NASA([1066.82, 5000.00],
                     [ 1.62725496E+01,  3.71185641E-02, -1.44020029E-05,
                       2.61623348E-09, -1.80996976E-13,  8.35933475E+03,
                      -5.57441245E+01])))

species(name=u'C6H8(180)',
        atoms='H:8 C:6',
        thermo=(NASA([100.00, 946.19],
                     [ 1.92826121E+00,  2.51788745E-02,  6.41517356E-05,
                      -1.05146160E-07,  4.31423785E-11,  2.35071327E+04,
                       1.81663596E+01]),
                NASA([946.19, 5000.00],
                     [ 1.60541419E+01,  1.69922214E-02, -4.56153081E-06,
                       8.26448548E-10, -6.55233208E-14,  1.85273044E+04,
                      -6.13908341E+01])))

species(name=u'S(303)',
        atoms='H:14 C:10',
        thermo=(NASA([100.00, 1023.31],
                     [-1.35330722E+00,  1.02145774E-01, -6.02126710E-05,
                       2.98654008E-09,  6.82391097E-12,  1.92963887E+04,
                       3.62027847E+01]),
                NASA([1023.31, 5000.00],
                     [ 2.19165271E+01,  4.14492753E-02, -1.56018190E-05,
                       2.82319586E-09, -1.96568943E-13,  1.29494494E+04,
                      -8.43388976E+01])))

species(name=u'S(307)',
        atoms='H:14 C:10',
        thermo=(NASA([100.00, 1021.59],
                     [-1.52382008E+00,  1.06261596E-01, -6.91259641E-05,
                       1.02481961E-08,  4.75055139E-12,  1.91139942E+04,
                       3.63023303E+01]),
                NASA([1021.59, 5000.00],
                     [ 2.26414205E+01,  4.05645199E-02, -1.51275253E-05,
                       2.72126045E-09, -1.88837979E-13,  1.26674225E+04,
                      -8.81835568E+01])))

species(name=u'S(729)',
        atoms='H:14 C:10',
        thermo=(NASA([100.00, 1013.88],
                     [-1.03527521E+00,  8.99214218E-02, -2.04491278E-05,
                      -3.87098816E-08,  2.10701742E-11,  2.19500184E+04,
                       3.75590118E+01]),
                NASA([1013.88, 5000.00],
                     [ 2.29265009E+01,  4.12101070E-02, -1.61763087E-05,
                       3.05734712E-09, -2.20216432E-13,  1.47358972E+04,
                      -8.99879804E+01])))

species(name=u'S(733)',
        atoms='H:14 C:10',
        thermo=(NASA([100.00, 1012.53],
                     [-1.20605840E+00,  9.40401291E-02, -2.93709084E-05,
                      -3.14398490E-08,  1.89945163E-11,  2.17676358E+04,
                       3.69663981E+01]),
                NASA([1012.53, 5000.00],
                     [ 2.36543438E+01,  4.03205348E-02, -1.56993177E-05,
                       2.95478832E-09, -2.12434612E-13,  1.44525644E+04,
                      -9.45425192E+01])))

species(name=u'S(914)',
        atoms='H:16 C:12',
        thermo=(NASA([100.00, 1000.07],
                     [-2.50676216E+00,  1.18597942E-01, -4.75531505E-05,
                      -3.00184670E-08,  2.14807377E-11,  2.80448969E+04,
                       4.49625099E+01]),
                NASA([1000.07, 5000.00],
                     [ 2.94792849E+01,  4.43568405E-02, -1.67347440E-05,
                       3.12383744E-09, -2.24918664E-13,  1.89621537E+04,
                      -1.22778398E+02])))

species(name=u'S(915)',
        atoms='H:16 C:12',
        thermo=(NASA([100.00, 998.42],
                     [-2.67611497E+00,  1.22698915E-01, -5.64088079E-05,
                      -2.28401427E-08,  1.94468519E-11,  2.78624534E+04,
                       4.36716757E+01]),
                NASA([998.42, 5000.00],
                     [ 3.02046526E+01,  4.34717644E-02, -1.62604618E-05,
                       3.02193821E-09, -2.17192763E-13,  1.86797676E+04,
                      -1.28012326E+02])))

species(name=u'S(1108)',
        atoms='H:16 C:12',
        thermo=(NASA([100.00, 1001.62],
                     [-2.33715097E+00,  1.14493788E-01, -3.86857354E-05,
                      -3.72129392E-08,  2.35219078E-11,  2.82273294E+04,
                       4.48661320E+01]),
                NASA([1001.62, 5000.00],
                     [ 2.87533219E+01,  4.52429669E-02, -1.72096473E-05,
                       3.22588599E-09, -2.32657111E-13,  1.92447777E+04,
                      -1.18927436E+02])))

species(name=u'S(1142)',
        atoms='H:14 C:10',
        thermo=(NASA([100.00, 1160.87],
                     [-1.01015775E+00,  9.64221881E-02, -5.82621494E-05,
                       1.24156524E-08,  7.64227212E-13,  2.15791627E+04,
                       3.60761300E+01]),
                NASA([1160.87, 5000.00],
                     [ 1.85105543E+01,  4.75366078E-02, -1.88404984E-05,
                       3.41278515E-09, -2.33582160E-13,  1.58087073E+04,
                      -6.63452014E+01])))

species(name=u'S(1145)',
        atoms='H:16 C:12',
        thermo=(NASA([100.00, 1074.92],
                     [-2.27012496E+00,  1.20580676E-01, -7.54421062E-05,
                       1.31235925E-08,  3.29640946E-12,  2.78545588E+04,
                       4.32277129E+01]),
                NASA([1074.92, 5000.00],
                     [ 2.36428313E+01,  5.26734700E-02, -2.04796685E-05,
                       3.71922138E-09, -2.57140710E-13,  2.06360028E+04,
                      -9.13236727E+01])))

species(name=u'S(1146)',
        atoms='H:16 C:12',
        thermo=(NASA([100.00, 1078.95],
                     [-2.45019703E+00,  1.24807477E-01, -8.47332589E-05,
                       2.08568529E-08,  1.03117449E-12,  2.76725789E+04,
                       4.26684953E+01]),
                NASA([1078.95, 5000.00],
                     [ 2.44206649E+01,  5.17010444E-02, -1.99557736E-05,
                       3.60573311E-09, -2.48461669E-13,  2.03309249E+04,
                      -9.61610876E+01])))

species(name=u'S(1541)',
        atoms='H:12 C:8',
        thermo=(NASA([100.00, 1520.46],
                     [ 3.33256816E-01,  7.70233903E-02, -5.19909225E-05,
                       1.84125603E-08, -2.72977416E-12,  1.52768255E+04,
                       2.88681811E+01]),
                NASA([1520.46, 5000.00],
                     [ 1.38154091E+01,  4.15547541E-02, -1.69995468E-05,
                       3.07009936E-09, -2.07104980E-13,  1.11770134E+04,
                      -4.18245982E+01])))

species(name=u'S(1544)',
        atoms='H:14 C:10',
        thermo=(NASA([100.00, 1430.48],
                     [-1.24876051E+00,  1.04742847E-01, -8.05829786E-05,
                       3.25316409E-08, -5.35210905E-12,  2.15667289E+04,
                       3.78850720E+01]),
                NASA([1430.48, 5000.00],
                     [ 2.02897438E+01,  4.45148457E-02, -1.74272667E-05,
                       3.09797885E-09, -2.08034790E-13,  1.54047159E+04,
                      -7.37365280E+01])))

species(name=u'S(1548)',
        atoms='H:14 C:10',
        thermo=(NASA([100.00, 1365.45],
                     [-1.34992437E+00,  1.08098474E-01, -8.71089359E-05,
                       3.70790490E-08, -6.42554961E-12,  2.13812447E+04,
                       3.70388900E+01]),
                NASA([1365.45, 5000.00],
                     [ 2.02493179E+01,  4.48246216E-02, -1.75998923E-05,
                       3.14186311E-09, -2.11973682E-13,  1.54827291E+04,
                      -7.38927093E+01])))

species(name=u'S(1824)',
        atoms='H:14 C:10',
        thermo=(NASA([100.00, 979.13],
                     [-1.61786644E+00,  1.06166096E-01, -6.04080465E-05,
                      -5.41801887E-09,  1.20423333E-11,  1.49251320E+04,
                       3.39372406E+01]),
                NASA([979.13, 5000.00],
                     [ 2.48037279E+01,  3.66649106E-02, -1.28202507E-05,
                       2.27494797E-09, -1.59205363E-13,  7.90859579E+03,
                      -1.02383319E+02])))

species(name=u'S(1909)',
        atoms='H:12 C:8',
        thermo=(NASA([100.00, 1093.32],
                     [ 2.36637697E-01,  7.13806073E-02, -3.04205239E-05,
                      -5.26761999E-09,  5.54497945E-12,  1.11111992E+04,
                       2.69517569E+01]),
                NASA([1093.32, 5000.00],
                     [ 1.41535962E+01,  4.07049724E-02, -1.61040105E-05,
                       2.93544374E-09, -2.02595338E-13,  6.85832312E+03,
                      -4.69635767E+01])))

species(name=u'S(1930)',
        atoms='H:12 C:8',
        thermo=(NASA([100.00, 1093.32],
                     [ 2.36638241E-01,  7.13806010E-02, -3.04205030E-05,
                      -5.26764556E-09,  5.54498963E-12,  1.09350726E+04,
                       2.64146056E+01]),
                NASA([1093.32, 5000.00],
                     [ 1.41535930E+01,  4.07049777E-02, -1.61040135E-05,
                       2.93544444E-09, -2.02595395E-13,  6.68219791E+03,
                      -4.75007076E+01])))

species(name=u'S(2059)',
        atoms='H:12 C:8',
        thermo=(NASA([100.00, 996.08],
                     [-1.55054420E-01,  7.76017702E-02, -3.37454095E-05,
                      -1.34614252E-08,  1.13198940E-11,  8.83061944E+03,
                       2.79505218E+01]),
                NASA([996.08, 5000.00],
                     [ 1.82444884E+01,  3.35255263E-02, -1.22645795E-05,
                       2.20885887E-09, -1.54520851E-13,  3.68623383E+03,
                      -6.81680129E+01])))

species(name=u'S(2318)',
        atoms='H:12 C:8',
        thermo=(NASA([100.00, 996.08],
                     [-1.55054420E-01,  7.76017702E-02, -3.37454095E-05,
                      -1.34614252E-08,  1.13198940E-11,  8.83061944E+03,
                       2.79505218E+01]),
                NASA([996.08, 5000.00],
                     [ 1.82444884E+01,  3.35255263E-02, -1.22645795E-05,
                       2.20885887E-09, -1.54520851E-13,  3.68623383E+03,
                      -6.81680129E+01])))

species(name=u'S(2347)',
        atoms='H:14 C:10',
        thermo=(NASA([100.00, 979.13],
                     [-1.61786644E+00,  1.06166096E-01, -6.04080465E-05,
                      -5.41801887E-09,  1.20423333E-11,  1.49251320E+04,
                       3.46303878E+01]),
                NASA([979.13, 5000.00],
                     [ 2.48037279E+01,  3.66649106E-02, -1.28202507E-05,
                       2.27494797E-09, -1.59205363E-13,  7.90859579E+03,
                      -1.01690172E+02])))

species(name=u'S(2497)',
        atoms='H:14 C:10',
        thermo=(NASA([100.00, 996.17],
                     [-1.40484009E+00,  1.01563983E-01, -5.26982344E-05,
                      -8.95924912E-09,  1.20629221E-11,  1.86281319E+04,
                       3.68890663E+01]),
                NASA([996.17, 5000.00],
                     [ 2.33617794E+01,  3.90818563E-02, -1.42761516E-05,
                       2.57812553E-09, -1.81029820E-13,  1.18596618E+04,
                      -9.17063980E+01])))

species(name=u'S(2505)',
        atoms='H:14 C:10',
        thermo=(NASA([100.00, 1040.81],
                     [-1.05073492E+00,  9.58137999E-02, -4.83306648E-05,
                      -3.94501074E-09,  7.95633346E-12,  1.73878508E+04,
                       3.42048466E+01]),
                NASA([1040.81, 5000.00],
                     [ 1.97249915E+01,  4.51480836E-02, -1.73642287E-05,
                       3.15592695E-09, -2.19242889E-13,  1.14826995E+04,
                      -7.44493924E+01])))

species(name=u'S(2701)',
        atoms='H:12 C:8',
        thermo=(NASA([100.00, 1018.55],
                     [ 6.01063084E-02,  7.29655393E-02, -2.58705028E-05,
                      -1.72899943E-08,  1.14983085E-11,  1.25335342E+04,
                       3.02021008E+01]),
                NASA([1018.55, 5000.00],
                     [ 1.68364676E+01,  3.58886254E-02, -1.36909925E-05,
                       2.50533844E-09, -1.75806316E-13,  7.62178202E+03,
                      -5.83776552E+01])))

species(name=u'S(2925)',
        atoms='H:14 C:10',
        thermo=(NASA([100.00, 1183.51],
                     [-6.91190383E-01,  8.98679366E-02, -4.54713854E-05,
                       4.12753555E-09,  2.54645681E-12,  1.96699614E+04,
                       3.33282141E+01]),
                NASA([1183.51, 5000.00],
                     [ 1.64681432E+01,  5.10148011E-02, -2.04887017E-05,
                       3.72071750E-09, -2.54331907E-13,  1.42677387E+04,
                      -5.80102936E+01])))

species(name=u'S(2934)',
        atoms='H:14 C:10',
        thermo=(NASA([100.00, 1183.52],
                     [-6.91205304E-01,  8.98681014E-02, -4.54719087E-05,
                       4.12813802E-09,  2.54623219E-12,  1.94938354E+04,
                       3.34842662E+01]),
                NASA([1183.52, 5000.00],
                     [ 1.64682689E+01,  5.10146007E-02, -2.04885914E-05,
                       3.72069234E-09, -2.54329875E-13,  1.40915547E+04,
                      -5.78550120E+01])))

species(name=u'S(2935)',
        atoms='H:14 C:10',
        thermo=(NASA([100.00, 1040.58],
                     [-1.22374881E+00,  9.99594398E-02, -5.73493132E-05,
                       3.45398686E-09,  5.82439019E-12,  1.72055638E+04,
                       3.36201901E+01]),
                NASA([1040.58, 5000.00],
                     [ 2.04597878E+01,  4.42465469E-02, -1.68802830E-05,
                       3.05171623E-09, -2.11323506E-13,  1.11964901E+04,
                      -7.90429949E+01])))

species(name=u'S(3105)',
        atoms='H:18 C:12',
        thermo=(NASA([100.00, 1088.29],
                     [-2.86930577E+00,  1.30777899E-01, -8.01308574E-05,
                       1.11815901E-08,  4.62612483E-12,  1.42694704E+04,
                       4.66366278E+01]),
                NASA([1088.29, 5000.00],
                     [ 2.69371452E+01,  5.49450459E-02, -2.20873739E-05,
                       4.09678525E-09, -2.86858312E-13,  5.78498864E+03,
                      -1.08858503E+02])))

species(name=u'S(4011)',
        atoms='H:14 C:10',
        thermo=(NASA([100.00, 1040.81],
                     [-1.05073492E+00,  9.58137999E-02, -4.83306648E-05,
                      -3.94501074E-09,  7.95633346E-12,  1.73878508E+04,
                       3.42048466E+01]),
                NASA([1040.81, 5000.00],
                     [ 1.97249915E+01,  4.51480836E-02, -1.73642287E-05,
                       3.15592695E-09, -2.19242889E-13,  1.14826995E+04,
                      -7.44493924E+01])))

species(name=u'S(4022)',