units(length='cm', time='s', quantity='mol', act_energy='kcal/mol')

ideal_gas(name='gas',
          elements="H D T C Ci O Oi N Ne Ar He Si S Cl X",
          species="""n-heptane   Ar          He          Ne
                     N2          C2H4(2)     C4H8-1(3)   C4H8-2(4)
                     C4H6(7)     C6H8(9)     C3H6(24)    H2(47)
                     C6H10(183)  C5H8c(196)  C8H12(451)  C2H6(707)
                     C8H14(720)  C8H14(723)  C8H14(724)  C8H14(726)
                     CH4(729)    C7H12(754)  C3H8(761)   C7H12(799)
                     C5H10(827)  C4H8(892)   S(1963)     S(2047)
                     S(2131)     S(2406)     S(3189)     S(3238)
                     S(3746)     S(3799)     S(4202)     S(4505)
                     S(4910)     S(5235)     S(5284)     S(5490)
                     S(6198)     S(6613)     S(6810)""",
          reactions='gas-*',
          initial_state=state(temperature=300.0, pressure=OneAtm))

ideal_interface(name='surface1',
                elements="H D T C Ci O Oi N Ne Ar He Si S Cl X",
                species="""X(1)        HX(5)       C2H3X(27)   allylX(28)
                          CH3X(29)    C2H5X(30)   C4H7X(31)   C4H7X(32)
                          C4H7X(33)   C4H7X(34)   C3H5X(35)   C4H7X(36)
                          C4H7X(37)   C4H5X(56)   C4H5X(57)   C6H9X(66)
                          C8H13X(74)  C8H13X(75)  C6H9X(80)   C6H7X(94)
                          C6H7X(95)   C6H7X(96)   C6H9X(107)  SX(145)
                          C6H7X(159)  C6H9X(175)  C5H7X(177)  C6H9X(201)
                          C6H9X(202)  C6H9X(203)  SX(219)     SX(220)
                          SX(221)     SX(222)     C6H9X(279)  C6H9X(307)
                          C6H9X(308)  C6H9X(309)  C6H9X(383)  C3H5X(385)
                          SX(388)     C6H9X(417)  C4H7X(418)  SX(447)
                          SX(450)     SX(474)     SX(476)     SX(477)
                          C6H9X(503)  C6H9X(504)  C6H9X(537)  SX(538)
                          SX(540)     SX(541)     SX(570)     C6H9X(600)
                          SX(602)     C6H9X(635)  SX(709)     C3H7X(730)
                          C5H9X(734)  C5H9X(735)  C5H7X(762)  SX(803)
                          SX(808)     SX(809)     SX(810)     SX(811)
                          C4H7X(923)  SX(936)     SX(971)     SX(973)
                          SX(977)     SX(1318)    SX(1399)    SX(1444)
                          SX(1487)    SX(1488)    SX(1495)    SX(1497)
                          SX(1681)    SX(1711)    SX(1875)    SX(1876)
                          SX(1904)    SX(1913)    SX(1926)    SX(1927)
                          SX(1954)    SX(1983)    SX(1984)    SX(1985)
                          SX(2036)    SX(2039)    SX(2067)    SX(2097)
                          SX(2215)    SX(2270)    SX(2299)    SX(2300)
                          SX(2301)    SX(2302)    SX(2303)    SX(2318)
                          SX(2344)    SX(2394)    SX(2424)    SX(2452)
                          SX(2510)    SX(2511)    SX(2544)    SX(2545)
                          SX(2658)    SX(2659)    SX(2686)    SX(2712)
                          SX(2713)    SX(2793)    SX(2794)    SX(2823)
                          SX(2824)    SX(2825)    SX(2873)    SX(2899)
                          SX(2953)    SX(3206)    SX(3229)    SX(3312)
                          SX(3340)    SX(3341)    SX(3464)    SX(3466)
                          SX(3467)    SX(3468)    SX(3650)    SX(3681)
                          SX(3682)    SX(3737)    SX(3790)    SX(3864)
                          SX(3865)    SX(3892)    SX(3893)    SX(4071)
                          SX(4072)    SX(4104)    SX(4105)    SX(4132)
                          SX(4190)    SX(4193)    SX(4271)    SX(4288)
                          SX(4289)    SX(4299)    SX(4345)    SX(4346)
                          SX(4356)    SX(4390)    SX(4392)    SX(4393)
                          SX(4394)    SX(4495)    SX(4497)    SX(4748)
                          SX(4832)    SX(4843)    SX(4845)    SX(4896)
                          SX(4901)    SX(4902)    SX(4996)    SX(4998)
                          SX(5129)    SX(5173)    SX(5174)    SX(5210)
                          SX(5232)    SX(5234)    SX(5243)    SX(5255)
                          SX(5260)    SX(5280)    SX(5282)    SX(5299)
                          SX(5310)    SX(5318)    SX(5327)    SX(5328)
                          SX(5356)    SX(5412)    SX(5420)    SX(5421)
                          SX(5431)    SX(5440)    SX(5441)    SX(5447)
                          SX(5448)    SX(5473)    SX(5479)    SX(5480)
                          SX(5481)    SX(5486)    SX(5487)    SX(5528)
                          SX(5539)    SX(5540)    SX(5568)    SX(5617)
                          SX(5724)    SX(5914)    SX(6103)    SX(6131)
                          SX(6141)    SX(6143)    SX(6144)    SX(6145)
                          SX(6186)    SX(6194)    SX(6206)    SX(6227)
                          SX(6234)    SX(6245)    SX(6258)    SX(6290)
                          SX(6308)    SX(6316)    SX(6323)    SX(6324)
                          SX(6325)    SX(6340)    SX(6345)    SX(6404)
                          SX(6408)    SX(6409)    SX(6411)    SX(6412)
                          SX(6416)    SX(6417)    SX(6420)    SX(6421)
                          SX(6422)    SX(6428)    SX(6429)    SX(6430)
                          SX(6431)    SX(6455)    SX(6458)    SX(6459)
                          SX(6461)    SX(6462)    SX(6479)    SX(6480)
                          SX(6498)    SX(6601)    SX(6602)    SX(6630)
                          SX(6631)    SX(6721)    SX(6747)    SX(6758)
                          SX(6759)    SX(6761)    SX(6806)    SX(6815)
                          SX(6816)    SX(6820)    SX(6846)    SX(6854)
                          SX(6867)    SX(6871)    SX(6964)    SX(7137)
                          SX(7146)    SX(7163)    SX(7187)    SX(7203)""",
                site_density=2.72e-09,
                phases="gas",
          reactions='surface1-*',
                initial_state=state(temperature=300.0, pressure=OneAtm))

#-------------------------------------------------------------------------------
# Element data
#-------------------------------------------------------------------------------

element(symbol=u'X', atomic_mass=195.083)
element(symbol=u'Ci', atomic_mass=13.003)
element(symbol=u'D', atomic_mass=2.014)
element(symbol=u'Oi', atomic_mass=18.0)
element(symbol=u'T', atomic_mass=3.016)
#-------------------------------------------------------------------------------
# Species data
#-------------------------------------------------------------------------------

species(name=u'n-heptane',
        atoms='H:16 C:7',
        thermo=(NASA([100.00, 1262.73],
                     [-2.91681405E-03,  7.69373649E-02, -3.48025563E-05,
                       1.86095180E-09,  2.01573617E-12, -2.57829342E+04,
                       3.00312148E+01]),
                NASA([1262.73, 5000.00],
                     [ 1.38377915E+01,  4.85945016E-02, -1.95474548E-05,
                       3.52837178E-09, -2.39064676E-13, -3.05141556E+04,
                      -4.48642836E+01])))

species(name=u'Ar',
        atoms='Ar:1',
        thermo=(NASA([200.00, 1000.00],
                     [ 2.50000000E+00,  0.00000000E+00,  0.00000000E+00,
                       0.00000000E+00,  0.00000000E+00, -7.45375000E+02,
                       4.37967000E+00]),
                NASA([1000.00, 6000.00],
                     [ 2.50000000E+00,  0.00000000E+00,  0.00000000E+00,
                       0.00000000E+00,  0.00000000E+00, -7.45375000E+02,
                       4.37967000E+00])))

species(name=u'He',
        atoms='He:1',
        thermo=(NASA([200.00, 1000.00],
                     [ 2.50000000E+00,  0.00000000E+00,  0.00000000E+00,
                       0.00000000E+00,  0.00000000E+00, -7.45375000E+02,
                       9.28724000E-01]),
                NASA([1000.00, 6000.00],
                     [ 2.50000000E+00,  0.00000000E+00,  0.00000000E+00,
                       0.00000000E+00,  0.00000000E+00, -7.45375000E+02,
                       9.28724000E-01])))

species(name=u'Ne',
        atoms='Ne:1',
        thermo=(NASA([200.00, 1000.00],
                     [ 2.50000000E+00,  0.00000000E+00,  0.00000000E+00,
                       0.00000000E+00,  0.00000000E+00, -7.45375000E+02,
                       3.35532000E+00]),
                NASA([1000.00, 6000.00],
                     [ 2.50000000E+00,  0.00000000E+00,  0.00000000E+00,
                       0.00000000E+00,  0.00000000E+00, -7.45375000E+02,
                       3.35532000E+00])))

species(name=u'N2',
        atoms='N:2',
        thermo=(NASA([200.00, 1000.00],
                     [ 3.53101000E+00, -1.23661000E-04, -5.02999000E-07,
                       2.43531000E-09, -1.40881000E-12, -1.04698000E+03,
                       2.96747000E+00]),
                NASA([1000.00, 6000.00],
                     [ 2.95258000E+00,  1.39690000E-03, -4.92632000E-07,
                       7.86010000E-11, -4.60755000E-15, -9.23949000E+02,
                       5.87189000E+00])))

species(name=u'C2H4(2)',
        atoms='H:4 C:2',
        thermo=(NASA([100.00, 979.36],
                     [ 3.97471606E+00, -4.75844285E-03,  4.16783770E-05,
                      -4.51392516E-08,  1.54224761E-11,  4.91540746E+03,
                       3.62430844E+00]),
                NASA([979.36, 5000.00],
                     [ 3.55660610E+00,  1.10627464E-02, -4.17019079E-06,
                       7.85586770E-10, -5.70060829E-14,  4.32046489E+03,
                       2.17719479E+00])))

species(name=u'C4H8-1(3)',
        atoms='H:8 C:4',
        thermo=(NASA([100.00, 1007.28],
                     [ 2.58772906E+00,  2.32777969E-02,  1.93412349E-05,
                      -3.55496333E-08,  1.36906009E-11, -1.91872926E+03,
                       1.45750618E+01]),
                NASA([1007.28, 5000.00],
                     [ 7.20517168E+00,  2.36361568E-02, -9.03150028E-06,
                       1.65392666E-09, -1.16019260E-13, -3.79733937E+03,
                      -1.24426257E+01])))

species(name=u'C4H8-2(4)',
        atoms='H:8 C:4',
        thermo=(NASA([100.00, 1157.79],
                     [ 2.51998327E+00,  2.76812799E-02,  9.43783469E-07,
                      -1.25009101E-08,  4.67144666E-12, -3.34374767E+03,
                       1.30195623E+01]),
                NASA([1157.79, 5000.00],
                     [ 6.04225708E+00,  2.60072350E-02, -1.04843374E-05,
                       1.90880922E-09, -1.30600505E-13, -4.86276511E+03,
                      -7.52715109E+00])))

species(name=u'C4H6(7)',
        atoms='H:6 C:4',
        thermo=(NASA([100.00, 946.05],
                     [ 2.80599310E+00,  1.02584471E-02,  6.17260255E-05,
                      -9.01642687E-08,  3.59116961E-11,  1.16584972E+04,
                       1.20621434E+01]),
                NASA([946.05, 5000.00],
                     [ 1.24693720E+01,  1.00553901E-02, -2.41206872E-06,
                       4.57077303E-10, -3.93160571E-14,  8.01077795E+03,
                      -4.36374720E+01])))

species(name=u'C6H8(9)',
        atoms='H:8 C:6',
        thermo=(NASA([100.00, 941.22],
                     [ 1.38427980E+00,  4.14411503E-02,  1.94287417E-05,
                      -6.16688700E-08,  2.86503633E-11,  1.76317461E+04,
                       1.93257509E+01]),
                NASA([941.22, 5000.00],
                     [ 1.69619680E+01,  1.57221707E-02, -4.10118367E-06,
                       6.95736344E-10, -5.26521484E-14,  1.29061672E+04,
                      -6.44097553E+01])))

species(name=u'C3H6(24)',
        atoms='H:6 C:3',
        thermo=(NASA([100.00, 983.75],
                     [ 3.31912102E+00,  8.17958674E-03,  3.34736123E-05,
                      -4.36193684E-08,  1.58213364E-11,  7.49325328E+02,
                       9.54025058E+00]),
                NASA([983.75, 5000.00],
                     [ 5.36755173E+00,  1.70743019E-02, -6.35107626E-06,
                       1.16619529E-09, -8.27620279E-14, -4.87138326E+02,
                      -4.54467529E+00])))

species(name=u'H2(47)',
        atoms='H:2',
        thermo=(NASA([100.00, 1959.08],
                     [ 3.43536412E+00,  2.12710353E-04, -2.78625043E-07,
                       3.40267167E-10, -7.76031998E-14, -1.03135984E+03,
                      -3.90841732E+00]),
                NASA([1959.08, 5000.00],
                     [ 2.78816583E+00,  5.87640942E-04,  1.59010417E-07,
                      -5.52739026E-11,  4.34310984E-15, -5.96144270E+02,
                       1.12732655E-01])))

species(name=u'C6H10(183)',
        atoms='H:10 C:6',
        thermo=(NASA([100.00, 1020.63],
                     [ 9.97427413E-01,  5.59777045E-02, -2.05880600E-05,
                      -1.17182304E-08,  8.13452041E-12,  6.30749855E+03,
                       2.38941836E+01]),
                NASA([1020.63, 5000.00],
                     [ 1.33828218E+01,  2.83661253E-02, -1.07663110E-05,
                       1.95749020E-09, -1.36589418E-13,  2.68926840E+03,
                      -4.14511818E+01])))

species(name=u'C5H8c(196)',
        atoms='H:8 C:5',
        thermo=(NASA([100.00, 1004.86],
                     [ 1.98273955E+00,  3.49998332E-02,  6.98515281E-06,
                      -3.05031334E-08,  1.32246652E-11,  6.96521034E+03,
                       1.60818191E+01]),
                NASA([1004.86, 5000.00],
                     [ 1.01246420E+01,  2.42323877E-02, -9.24886971E-06,
                       1.70115950E-09, -1.20059732E-13,  4.23624320E+03,
                      -2.86745770E+01])))

species(name=u'C8H12(451)',
        atoms='H:12 C:8',
        thermo=(NASA([100.00, 966.56],
                     [-1.28183216E-01,  7.35572918E-02, -1.44333618E-05,
                      -3.89698452E-08,  2.17299794E-11,  1.04422483E+04,
                       2.89601759E+01]),
                NASA([966.56, 5000.00],
                     [ 2.02785414E+01,  2.99584765E-02, -1.01704686E-05,
                       1.81720743E-09, -1.29537878E-13,  4.58909334E+03,
                      -7.86679341E+01])))

species(name=u'C2H6(707)',
        atoms='H:6 C:2',
        thermo=(NASA([100.00, 1012.42],
                     [ 3.72239291E+00,  1.65083841E-03,  3.44175530E-05,
                      -3.76858229E-08,  1.24450657E-11, -1.15575901E+04,
                       4.68247999E+00]),
                NASA([1012.42, 5000.00],
                     [ 2.82848257E+00,  1.73040568E-02, -6.73334245E-06,
                       1.23742024E-09, -8.65676410E-14, -1.19978080E+04,
                       5.93811707E+00])))

species(name=u'C8H14(720)',
        atoms='H:14 C:8',
        thermo=(NASA([100.00, 1506.76],
                     [ 5.49675181E-02,  8.43985440E-02, -5.64633487E-05,
                       1.98661295E-08, -2.94599969E-12, -7.77393079E+02,
                       2.95663347E+01]),
                NASA([1506.76, 5000.00],
                     [ 1.39949012E+01,  4.73919655E-02, -1.96226018E-05,
                       3.56583689E-09, -2.41458224E-13, -4.97819756E+03,
                      -4.34005510E+01])))

species(name=u'C8H14(723)',
        atoms='H:14 C:8',
        thermo=(NASA([100.00, 1014.29],
                     [-3.67121846E-01,  8.14233516E-02, -3.11110886E-05,
                      -1.65487757E-08,  1.19185866E-11, -3.02333684E+03,
                       3.00035003E+01]),
                NASA([1014.29, 5000.00],
                     [ 1.79686767E+01,  3.98264136E-02, -1.50150741E-05,
                       2.72531006E-09, -1.90287561E-13, -8.32275149E+03,
                      -6.65042554E+01])))

species(name=u'C8H14(724)',
        atoms='H:14 C:8',
        thermo=(NASA([100.00, 1016.25],
                     [-1.96777655E-01,  7.73097837E-02, -2.22069863E-05,
                      -2.37965356E-08,  1.39851151E-11, -2.84093532E+03,
                       3.12908370E+01]),
                NASA([1016.25, 5000.00],
                     [ 1.72431734E+01,  4.07120734E-02, -1.54898359E-05,
                       2.82734689E-09, -1.98026375E-13, -8.04042418E+03,
                      -6.12697843E+01])))

species(name=u'C8H14(726)',
        atoms='H:14 C:8',
        thermo=(NASA([100.00, 999.32],
                     [-8.27296041E-02,  7.33926821E-02, -9.70961131E-06,
                      -3.77339221E-08,  1.91784792E-11, -2.27794802E+03,
                       3.16114703E+01]),
                NASA([999.32, 5000.00],
                     [ 1.74908493E+01,  3.99675318E-02, -1.49508424E-05,
                       2.72972667E-09, -1.92366979E-13, -7.63361766E+03,
                      -6.23819175E+01])))

species(name=u'CH4(729)',
        atoms='H:4 C:1',
        thermo=(NASA([100.00, 1084.12],
                     [ 4.20541524E+00, -5.35557362E-03,  2.51123265E-05,
                      -2.13762843E-08,  5.97523937E-12, -1.01619433E+04,
                      -9.21279283E-01]),
                NASA([1084.12, 5000.00],
                     [ 9.08265721E-01,  1.14540858E-02, -4.57173828E-06,
                       8.29191671E-10, -5.66314895E-14, -9.71997444E+03,
                       1.39930944E+01])))

species(name=u'C7H12(754)',
        atoms='H:12 C:7',
        thermo=(NASA([100.00, 1016.70],
                     [ 3.01260003E-01,  6.93239326E-02, -2.79061455E-05,
                      -1.19417116E-08,  9.27990587E-12, -3.26068174E+02,
                       2.53851511E+01]),
                NASA([1016.70, 5000.00],
                     [ 1.55703568E+01,  3.41922940E-02, -1.28717489E-05,
                       2.32849221E-09, -1.62040961E-13, -4.71997327E+03,
                      -5.48718412E+01])))

species(name=u'C3H8(761)',
        atoms='H:8 C:3',
        thermo=(NASA([100.00, 989.99],
                     [ 3.06336167E+00,  1.29214561E-02,  3.47032808E-05,
                      -4.70946154E-08,  1.71384141E-11, -1.43905789E+04,
                       1.07835592E+01]),
                NASA([989.99, 5000.00],
                     [ 5.60440043E+00,  2.19528785E-02, -8.22080610E-06,
                       1.50103993E-09, -1.05635358E-13, -1.58394038E+04,
                      -6.22623300E+00])))

species(name=u'C7H12(799)',
        atoms='H:12 C:7',
        thermo=(NASA([100.00, 1783.81],
                     [ 3.90326636E-01,  6.99570089E-02, -4.36036386E-05,
                       1.36989862E-08, -1.75194759E-12,  3.91426270E+03,
                       2.69445029E+01]),
                NASA([1783.81, 5000.00],
                     [ 1.66532980E+01,  3.34889164E-02, -1.29376150E-05,
                       2.23806923E-09, -1.45699842E-13, -1.88772406E+03,
                      -6.09270868E+01])))

species(name=u'C5H10(827)',
        atoms='H:10 C:5',
        thermo=(NASA([100.00, 1065.88],
                     [ 1.83973645E+00,  3.88165649E-02,  3.95415802E-06,
                      -2.48620336E-08,  1.01608534E-11, -6.45875726E+03,
                       1.88194915E+01]),
                NASA([1065.88, 5000.00],
                     [ 8.87931728E+00,  3.15047857E-02, -1.26438740E-05,
                       2.33666558E-09, -1.63001335E-13, -9.04475166E+03,
                      -2.06827600E+01])))

species(name=u'C4H8(892)',
        atoms='H:8 C:4',
        thermo=(NASA([100.00, 1061.33],
                     [ 2.52504770E+00,  2.64752782E-02,  7.08359238E-06,
                      -2.07731462E-08,  8.00430055E-12, -4.02607130E+03,
                       1.28857274E+01]),
                NASA([1061.33, 5000.00],
                     [ 6.48672669E+00,  2.49943921E-02, -9.83283171E-06,
                       1.79343299E-09, -1.24008235E-13, -5.62452310E+03,
                      -1.00316397E+01])))

species(name=u'S(1963)',
        atoms='H:18 C:10',
        thermo=(NASA([100.00, 1037.73],
                     [-1.80880497E+00,  1.10090589E-01, -5.38793614E-05,
                      -6.37672571E-09,  9.80097777E-12, -9.64795853E+03,
                       4.01161871E+01]),
                NASA([1037.73, 5000.00],
                     [ 2.19606482E+01,  5.26116191E-02, -2.01463607E-05,
                       3.65635715E-09, -2.53906246E-13, -1.64195702E+04,
                      -8.42955647E+01])))

species(name=u'S(2047)',
        atoms='H:18 C:10',
        thermo=(NASA([100.00, 1158.48],
                     [-1.73167591E+00,  1.09077891E-01, -5.83333229E-05,
                       5.40067358E-09,  3.60301005E-12, -6.92483725E+03,
                       4.08092886E+01]),
                NASA([1158.48, 5000.00],
                     [ 2.11409181E+01,  5.59043600E-02, -2.28913870E-05,
                       4.22976090E-09, -2.93014074E-13, -1.39556654E+04,
                      -8.03749852E+01])))

species(name=u'S(2131)',
        atoms='H:14 C:8',
        thermo=(NASA([100.00, 1061.60],
                     [-2.92612015E-01,  8.13598166E-02, -3.75111047E-05,
                      -5.26746011E-09,  6.79996745E-12, -3.15203310E+03,
                       3.11249298E+01]),
                NASA([1061.60, 5000.00],
                     [ 1.65258017E+01,  4.22160438E-02, -1.64331635E-05,
                       2.99218456E-09, -2.07335165E-13, -8.08806756E+03,
                      -5.74492182E+01])))

species(name=u'S(2406)',
        atoms='H:16 C:9',
        thermo=(NASA([100.00, 1563.75],
                     [-8.12375823E-01,  9.86888614E-02, -6.66358248E-05,
                       2.33682943E-08, -3.39676096E-12, -3.46572508E+03,
                       3.56023758E+01]),
                NASA([1563.75, 5000.00],
                     [ 1.80334241E+01,  5.04824494E-02, -2.03949216E-05,
                       3.65472377E-09, -2.45128673E-13, -9.35978208E+03,
                      -6.37435288E+01])))

species(name=u'S(3189)',
        atoms='H:18 C:10',
        thermo=(NASA([100.00, 1380.53],
                     [-1.24630044E+00,  1.14045057E-01, -8.17752249E-05,
                       3.15462852E-08, -5.16232066E-12, -8.15220733E+03,
                       3.79046400E+01]),
                NASA([1380.53, 5000.00],
                     [ 1.62908629E+01,  6.32321518E-02, -2.65649428E-05,
                       4.88485819E-09, -3.34200347E-13, -1.29943174E+04,
                      -5.23571791E+01])))

species(name=u'S(3238)',
        atoms='H:18 C:10',
        thermo=(NASA([100.00, 1717.23],
                     [-1.98574086E+00,  1.14573109E-01, -7.68576584E-05,
                       2.57563585E-08, -3.48008894E-12, -7.05206785E+03,
                       4.03916955E+01]),
                NASA([1717.23, 5000.00],
                     [ 2.63343643E+01,  4.86058840E-02, -1.92350594E-05,
                       3.38589678E-09, -2.23309689E-13, -1.67784537E+04,
                      -1.11549358E+02])))

species(name=u'S(3746)',
        atoms='H:18 C:10',
        thermo=(NASA([100.00, 1039.92],
                     [-1.68892614E+00,  1.04892160E-01, -3.63678012E-05,
                      -2.44904322E-08,  1.57571722E-11, -8.20566676E+03,
                       3.91111957E+01]),
                NASA([1039.92, 5000.00],
                     [ 2.26524637E+01,  5.26991456E-02, -2.08505326E-05,
                       3.87716665E-09, -2.73674615E-13, -1.55087267E+04,
                      -9.00469670E+01])))

species(name=u'S(3799)',
        atoms='H:18 C:10',
        thermo=(NASA([100.00, 1188.78],
                     [-1.95300717E+00,  1.15046892E-01, -7.59923563E-05,
                       2.20571103E-08, -1.46154816E-12, -1.03349424E+04,
                       4.06077933E+01]),
                NASA([1188.78, 5000.00],
                     [ 2.15567328E+01,  5.36921349E-02, -2.09728234E-05,
                       3.76285270E-09, -2.55770737E-13, -1.71787854E+04,
                      -8.21540077E+01])))

species(name=u'S(4202)',
        atoms='H:18 C:10',
        thermo=(NASA([100.00, 1324.90],
                     [-1.71620699E+00,  1.09484072E-01, -6.53616543E-05,
                       1.61463329E-08, -7.58445344E-13, -7.20151868E+03,
                       4.04599449E+01]),
                NASA([1324.90, 5000.00],
                     [ 2.18554869E+01,  5.49952764E-02, -2.25519900E-05,
                       4.10557641E-09, -2.79086432E-13, -1.49111974E+04,
                      -8.54150774E+01])))

species(name=u'S(4505)',
        atoms='H:18 C:10',
        thermo=(NASA([100.00, 1091.06],
                     [-1.75140178E+00,  1.10205167E-01, -6.07838718E-05,
                       5.37602654E-09,  4.56468895E-12, -9.27267051E+03,
                       3.99141768E+01]),
                NASA([1091.06, 5000.00],
                     [ 2.07353004E+01,  5.46510751E-02, -2.13704545E-05,
                       3.87875579E-09, -2.67347996E-13, -1.57797898E+04,
                      -7.78643522E+01])))

species(name=u'S(4910)',
        atoms='H:14 C:8',
        thermo=(NASA([100.00, 1061.60],
                     [-2.92612951E-01,  8.13598275E-02, -3.75111418E-05,
                      -5.26741361E-09,  6.79994848E-12, -2.97590642E+03,
                       3.09689353E+01]),
                NASA([1061.60, 5000.00],
                     [ 1.65258066E+01,  4.22160356E-02, -1.64331588E-05,
                       2.99218348E-09, -2.07335076E-13, -7.91194306E+03,
                      -5.76052440E+01])))

species(name=u'S(5235)',
        atoms='H:22 C:12',
        thermo=(NASA([100.00, 1596.86],
                     [-3.18371219E+00,  1.43266074E-01, -9.98088042E-05,
                       3.53671123E-08, -5.11123579E-12, -1.39291257E+04,
                       4.83379473E+01]),
                NASA([1596.86, 5000.00],
                     [ 2.79748183E+01,  6.52166955E-02, -2.64937440E-05,
                       4.75914950E-09, -3.19344884E-13, -2.38803032E+04,
                      -1.16567413E+02])))

species(name=u'S(5284)',
        atoms='H:22 C:12',
        thermo=(NASA([100.00, 1560.60],
                     [-3.64054127E+00,  1.45950192E-01, -1.05415282E-04,
                       3.92761964E-08, -5.92020768E-12, -1.58527244E+04,
                       5.18478521E+01]),
                NASA([1560.60, 5000.00],
                     [ 2.99361750E+01,  5.98898044E-02, -2.26973547E-05,
                       3.94051510E-09, -2.59658559E-13, -2.63327690E+04,
                      -1.25084652E+02])))

species(name=u'S(5490)',
        atoms='H:22 C:12',
        thermo=(NASA([100.00, 1634.23],
                     [-3.41232494E+00,  1.41481077E-01, -9.73916659E-05,
                       3.42880967E-08, -4.89292210E-12, -1.30713715E+04,
                       5.32748391E+01]),
                NASA([1634.23, 5000.00],
                     [ 2.95955676E+01,  6.06897785E-02, -2.32362887E-05,
                       4.03720439E-09, -2.65224223E-13, -2.38598697E+04,
                      -1.22181708E+02])))

species(name=u'S(6198)',
        atoms='H:22 C:12',
        thermo=(NASA([100.00, 1082.53],
                     [-3.26556642E+00,  1.37682898E-01, -7.21524451E-05,
                      -2.44294212E-11,  8.44039536E-12, -1.50652391E+04,
                       4.84436248E+01]),
                NASA([1082.53, 5000.00],
                     [ 2.67295110E+01,  6.56933571E-02, -2.62241925E-05,
                       4.83784298E-09, -3.37441242E-13, -2.38353423E+04,
                      -1.09156285E+02])))

species(name=u'S(6613)',
        atoms='H:18 C:10',
        thermo=(NASA([100.00, 1188.78],
                     [-1.95300717E+00,  1.15046892E-01, -7.59923563E-05,
                       2.20571103E-08, -1.46154816E-12, -1.03349424E+04,
                       4.06077933E+01]),
                NASA([1188.78, 5000.00],
                     [ 2.15567328E+01,  5.36921349E-02, -2.09728234E-05,
                       3.76285270E-09, -2.55770737E-13, -1.71787854E+04,
                      -8.21540077E+01])))

species(name=u'S(6810)',
        atoms='H:22 C:12',
        thermo=(NASA([100.00, 1672.36],
                     [-3.13474916E+00,  1.40416953E-01, -9.46243407E-05,
                       3.20793002E-08, -4.41730322E-12, -1.40681393E+04,
                       4.92237877E+01]),
                NASA([1672.36, 5000.00],
                     [ 2.90428784E+01,  6.34541411E-02, -2.55941456E-05,
                       4.56143391E-09, -3.03706806E-13, -2.48307368E+04,
                      -1.22561798E+02])))

species(name=u'X(1)',
        atoms='X:1',
        thermo=(NASA([100.00, 1554.80],
                     [ 7.10139498E-03, -4.25619522E-05,  8.98533016E-08,
                      -7.80193649E-11,  2.32465471E-14, -8.76101712E-01,
                      -3.11211229E-02]),
                NASA([1554.80, 5000.00],
                     [ 1.60299900E-01, -2.52235409E-04,  1.14181275E-07,
                      -1.21471653E-11,  3.85790025E-16, -7.08100885E+01,
                      -9.09527530E-01])))

species(name=u'HX(5)',
        atoms='H:1 X:1',
        thermo=(NASA([100.00, 952.91],
                     [-3.80965452E-01,  5.47228709E-03,  2.60912778E-06,
                      -9.64961980E-09,  4.63946753E-12, -7.19163862E+02,
                       1.01725550E+00]),
                NASA([952.91, 5000.00],
                     [ 2.80339655E+00, -5.41047017E-04,  4.99507978E-07,
                      -7.54963647E-11,  3.06772366E-15, -1.65991328E+03,
                      -1.59436787E+01])))

species(name=u'C2H3X(27)',
        atoms='H:3 C:2 X:1',
        thermo=(NASA([100.00, 928.62],
                     [ 3.83091018E+00, -8.76381562E-03,  6.97956896E-05,
                      -8.67969174E-08,  3.33218121E-11,  2.32557546E+03,
                      -1.81151753E+01]),
                NASA([928.62, 5000.00],
                     [ 8.78054562E+00,  1.92497720E-03,  8.25825014E-07,