units(length='cm', time='s', quantity='mol', act_energy='kcal/mol')

ideal_gas(name='gas',
          elements="H D T C Ci O Oi N Ne Ar He Si S Cl X",
          species="""n-heptane   Ar          He          Ne
                     N2          C2H4(2)     C4H8-1(3)   C4H8-2(4)
                     C4H6(7)     C6H8(9)     C4H6a(55)   C6H10d(58)
                     C8H10(78)   C6H8(83)    C6H8(122)   C8H10(125)
                     C8H10(129)  C6H8(180)   C8H10(358)  C8H10(359)
                     C8H10(492)  C8H10(493)  C8H10(494)  S(678)
                     S(682)      S(774)      S(777)      S(788)
                     S(896)      S(933)      S(1037)     S(2116)
                     S(2843)     S(2927)     S(2935)     S(3285)
                     S(3457)""",
          reactions='gas-*',
          transport='Mix',
          initial_state=state(temperature=300.0, pressure=OneAtm))

ideal_interface(name='surface1',
                elements="H D T C Ci O Oi N Ne Ar He Si S Cl X",
                species="""X(1)        HX(5)       C2H3X(27)   C2H5X(30)
                          C4H7X(31)   C4H7X(32)   C4H7X(33)   C4H7X(34)
                          C4H9X(44)   C4H5X(56)   C4H5X(57)   C6H9X(65)
                          C6H9X(66)   C8H11X(76)  C8H11X(77)  C6H7X(84)
                          C6H7X(85)   C6H7X(86)   C6H9X(97)   C8H11X(99)
                          C6H9X(118)  SX(123)     SX(124)     SX(128)
                          C6H9X(159)  C6H7X(182)  C6H9X(196)  SX(198)
                          SX(232)     C6H9X(275)  SX(328)     SX(378)
                          SX(402)     SX(439)     SX(440)     SX(442)
                          SX(529)     SX(530)     SX(531)     SX(532)
                          SX(533)     SX(536)     SX(539)     C6H9X(587)
                          SX(613)     SX(642)     SX(676)     C6H9X(697)
                          C6H9X(698)  SX(773)     SX(875)     SX(888)
                          SX(891)     SX(924)     SX(926)     SX(965)
                          SX(1003)    SX(1004)    SX(1005)    SX(1006)
                          SX(1007)    SX(1028)    SX(1029)    SX(1031)
                          SX(1035)    SX(1036)    SX(1043)    SX(1057)
                          SX(1061)    SX(1092)    SX(1093)    SX(1198)
                          SX(1221)    SX(1222)    SX(1225)    SX(1235)
                          SX(1252)    SX(1448)    SX(1491)    SX(1492)
                          SX(1494)    SX(1506)    SX(1527)    SX(1529)
                          SX(1539)    SX(1559)    SX(1589)    SX(1590)
                          SX(1591)    SX(1593)    SX(1618)    SX(1619)
                          SX(1855)    SX(1874)    SX(1875)    SX(1876)
                          SX(2105)    SX(2106)    SX(2119)    SX(2137)
                          SX(2796)    SX(2820)    SX(2837)    SX(2870)
                          SX(2871)    SX(2872)    SX(2874)    SX(2930)
                          SX(2964)    SX(2965)    SX(2966)    SX(3027)
                          SX(3061)    SX(3062)    SX(3063)    SX(3064)
                          SX(3066)    SX(3088)    SX(3095)    SX(3119)
                          SX(3139)    SX(3164)    SX(3214)    SX(3239)
                          SX(3259)    SX(3279)    SX(3281)    SX(3374)
                          SX(3409)    SX(3460)    SX(3513)    SX(3514)
                          SX(3515)    SX(3516)    SX(3598)    SX(3599)
                          SX(3751)    SX(3790)    SX(3791)    SX(3881)""",
                site_density=2.72e-09,
                phases="gas",
          reactions='surface1-*',
                initial_state=state(temperature=300.0, pressure=OneAtm))

#-------------------------------------------------------------------------------
# Element data
#-------------------------------------------------------------------------------

element(symbol=u'X', atomic_mass=195.083)
element(symbol=u'Ci', atomic_mass=13.003)
element(symbol=u'D', atomic_mass=2.014)
element(symbol=u'Oi', atomic_mass=18.0)
element(symbol=u'T', atomic_mass=3.016)
#-------------------------------------------------------------------------------
# Species data
#-------------------------------------------------------------------------------

species(name=u'n-heptane',
        atoms='H:16 C:7',
        thermo=(NASA([100.00, 1262.73],
                     [-2.91681405E-03,  7.69373649E-02, -3.48025563E-05,
                       1.86095180E-09,  2.01573617E-12, -2.57829342E+04,
                       3.00312148E+01]),
                NASA([1262.73, 5000.00],
                     [ 1.38377915E+01,  4.85945016E-02, -1.95474548E-05,
                       3.52837178E-09, -2.39064676E-13, -3.05141556E+04,
                      -4.48642836E+01])),
        transport=gas_transport(geom='nonlinear',
                                diam=6.366,
                                well_depth=402.997))

species(name=u'Ar',
        atoms='Ar:1',
        thermo=(NASA([200.00, 1000.00],
                     [ 2.50000000E+00,  0.00000000E+00,  0.00000000E+00,
                       0.00000000E+00,  0.00000000E+00, -7.45375000E+02,
                       4.37967000E+00]),
                NASA([1000.00, 6000.00],
                     [ 2.50000000E+00,  0.00000000E+00,  0.00000000E+00,
                       0.00000000E+00,  0.00000000E+00, -7.45375000E+02,
                       4.37967000E+00])),
        transport=gas_transport(geom='atom',
                                diam=3.33,
                                well_depth=136.5))

species(name=u'He',
        atoms='He:1',
        thermo=(NASA([200.00, 1000.00],
                     [ 2.50000000E+00,  0.00000000E+00,  0.00000000E+00,
                       0.00000000E+00,  0.00000000E+00, -7.45375000E+02,
                       9.28724000E-01]),
                NASA([1000.00, 6000.00],
                     [ 2.50000000E+00,  0.00000000E+00,  0.00000000E+00,
                       0.00000000E+00,  0.00000000E+00, -7.45375000E+02,
                       9.28724000E-01])),
        transport=gas_transport(geom='atom',
                                diam=2.576,
                                well_depth=10.2))

species(name=u'Ne',
        atoms='Ne:1',
        thermo=(NASA([200.00, 1000.00],
                     [ 2.50000000E+00,  0.00000000E+00,  0.00000000E+00,
                       0.00000000E+00,  0.00000000E+00, -7.45375000E+02,
                       3.35532000E+00]),
                NASA([1000.00, 6000.00],
                     [ 2.50000000E+00,  0.00000000E+00,  0.00000000E+00,
                       0.00000000E+00,  0.00000000E+00, -7.45375000E+02,
                       3.35532000E+00])),
        transport=gas_transport(geom='atom',
                                diam=3.758,
                                well_depth=148.6))

species(name=u'N2',
        atoms='N:2',
        thermo=(NASA([200.00, 1000.00],
                     [ 3.53101000E+00, -1.23661000E-04, -5.02999000E-07,
                       2.43531000E-09, -1.40881000E-12, -1.04698000E+03,
                       2.96747000E+00]),
                NASA([1000.00, 6000.00],
                     [ 2.95258000E+00,  1.39690000E-03, -4.92632000E-07,
                       7.86010000E-11, -4.60755000E-15, -9.23949000E+02,
                       5.87189000E+00])),
        transport=gas_transport(geom='linear',
                                diam=3.621,
                                well_depth=97.53,
                                polar=1.76,
                                rot_relax=4.0))

species(name=u'C2H4(2)',
        atoms='H:4 C:2',
        thermo=(NASA([100.00, 979.36],
                     [ 3.97471606E+00, -4.75844285E-03,  4.16783770E-05,
                      -4.51392516E-08,  1.54224761E-11,  4.91540746E+03,
                       3.62430844E+00]),
                NASA([979.36, 5000.00],
                     [ 3.55660610E+00,  1.10627464E-02, -4.17019079E-06,
                       7.85586770E-10, -5.70060829E-14,  4.32046489E+03,
                       2.17719479E+00])),
        transport=gas_transport(geom='nonlinear',
                                diam=3.971,
                                well_depth=280.8,
                                rot_relax=1.5))

species(name=u'C4H8-1(3)',
        atoms='H:8 C:4',
        thermo=(NASA([100.00, 1007.28],
                     [ 2.58772906E+00,  2.32777969E-02,  1.93412349E-05,
                      -3.55496333E-08,  1.36906009E-11, -1.91872926E+03,
                       1.45750618E+01]),
                NASA([1007.28, 5000.00],
                     [ 7.20517168E+00,  2.36361568E-02, -9.03150028E-06,
                       1.65392666E-09, -1.16019260E-13, -3.79733937E+03,
                      -1.24426257E+01])),
        transport=gas_transport(geom='nonlinear',
                                diam=5.176,
                                well_depth=357.002,
                                rot_relax=1.0))

species(name=u'C4H8-2(4)',
        atoms='H:8 C:4',
        thermo=(NASA([100.00, 1157.79],
                     [ 2.51998327E+00,  2.76812799E-02,  9.43783469E-07,
                      -1.25009101E-08,  4.67144666E-12, -3.34374767E+03,
                       1.30195623E+01]),
                NASA([1157.79, 5000.00],
                     [ 6.04225708E+00,  2.60072350E-02, -1.04843374E-05,
                       1.90880922E-09, -1.30600505E-13, -4.86276511E+03,
                      -7.52715109E+00])),
        transport=gas_transport(geom='nonlinear',
                                diam=5.289,
                                well_depth=359.053))

species(name=u'C4H6(7)',
        atoms='H:6 C:4',
        thermo=(NASA([100.00, 946.05],
                     [ 2.80599310E+00,  1.02584471E-02,  6.17260255E-05,
                      -9.01642687E-08,  3.59116961E-11,  1.16584972E+04,
                       1.20621434E+01]),
                NASA([946.05, 5000.00],
                     [ 1.24693720E+01,  1.00553901E-02, -2.41206872E-06,
                       4.57077303E-10, -3.93160571E-14,  8.01077795E+03,
                      -4.36374720E+01])),
        transport=gas_transport(geom='nonlinear',
                                diam=5.18,
                                well_depth=357.002,
                                rot_relax=1.0))

species(name=u'C6H8(9)',
        atoms='H:8 C:6',
        thermo=(NASA([100.00, 941.22],
                     [ 1.38427980E+00,  4.14411503E-02,  1.94287417E-05,
                      -6.16688700E-08,  2.86503633E-11,  1.76317461E+04,
                       1.93257509E+01]),
                NASA([941.22, 5000.00],
                     [ 1.69619680E+01,  1.57221707E-02, -4.10118367E-06,
                       6.95736344E-10, -5.26521484E-14,  1.29061672E+04,
                      -6.44097553E+01])),
        transport=gas_transport(geom='nonlinear',
                                diam=5.514,
                                well_depth=396.052))

species(name=u'C4H6a(55)',
        atoms='H:6 C:4',
        thermo=(NASA([100.00, 950.38],
                     [ 3.41327601E+00, -4.60830638E-03,  9.57205603E-05,
                      -1.18800574E-07,  4.44495312E-11,  1.74039828E+04,
                       1.01517556E+01]),
                NASA([950.38, 5000.00],
                     [ 9.72156091E+00,  1.36879055E-02, -3.93842260E-06,
                       7.58710118E-10, -6.16013131E-14,  1.41795804E+04,
                      -3.06164436E+01])),
        transport=gas_transport(geom='nonlinear',
                                diam=5.503,
                                well_depth=381.31))

species(name=u'C6H10d(58)',
        atoms='H:10 C:6',
        thermo=(NASA([100.00, 969.70],
                     [ 2.39493639E+00,  1.31308716E-02,  1.02019898E-04,
                      -1.35266841E-07,  5.06735576E-11, -2.55363631E+03,
                       1.63461006E+01]),
                NASA([969.70, 5000.00],
                     [ 1.20193596E+01,  2.96991246E-02, -1.06504175E-05,
                       2.03502649E-09, -1.52378829E-13, -7.06570658E+03,
                      -4.34309725E+01])),
        transport=gas_transport(geom='nonlinear',
                                diam=6.352,
                                well_depth=436.658))

species(name=u'C8H10(78)',
        atoms='H:10 C:8',
        thermo=(NASA([100.00, 941.38],
                     [ 8.64508879E-02,  6.59507123E-02,  1.49007776E-06,
                      -6.06862449E-08,  3.13845046E-11,  2.39088929E+04,
                       2.66192822E+01]),
                NASA([941.38, 5000.00],
                     [ 2.28417755E+01,  1.96704891E-02, -5.08803462E-06,
                       8.53682038E-10, -6.42382395E-14,  1.73909786E+04,
                      -9.36509497E+01])),
        transport=gas_transport(geom='nonlinear',
                                diam=6.008,
                                well_depth=441.329))

species(name=u'C6H8(83)',
        atoms='H:8 C:6',
        thermo=(NASA([100.00, 982.45],
                     [ 2.05482741E+00,  2.86394809E-02,  3.83671565E-05,
                      -6.66308438E-08,  2.64365037E-11,  2.60818009E+04,
                       1.79213926E+01]),
                NASA([982.45, 5000.00],
                     [ 1.14504006E+01,  2.51395054E-02, -9.35048470E-06,
                       1.75511598E-09, -1.27609536E-13,  2.25584277E+04,
                      -3.57764240E+01])),
        transport=gas_transport(geom='nonlinear',
                                diam=5.831,
                                well_depth=413.101))

species(name=u'C6H8(122)',
        atoms='H:8 C:6',
        thermo=(NASA([100.00, 972.94],
                     [ 1.82686070E+00,  3.47046353E-02,  2.41070171E-05,
                      -5.44847920E-08,  2.29388832E-11,  1.99100661E+04,
                       1.81393315E+01]),
                NASA([972.94, 5000.00],
                     [ 1.21686202E+01,  2.40472785E-02, -8.58151834E-06,
                       1.57034031E-09, -1.12795334E-13,  1.63897115E+04,
                      -3.92195169E+01])),
        transport=gas_transport(geom='nonlinear',
                                diam=5.466,
                                well_depth=388.421))

species(name=u'C8H10(125)',
        atoms='H:10 C:8',
        thermo=(NASA([100.00, 966.00],
                     [ 5.26364552E-01,  5.92493286E-02,  6.02658334E-06,
                      -5.32875938E-08,  2.55662369E-11,  2.61873255E+04,
                       2.61353490E+01]),
                NASA([966.00, 5000.00],
                     [ 1.80461436E+01,  2.79985777E-02, -9.56971683E-06,
                       1.72854036E-09, -1.24398543E-13,  2.08757672E+04,
                      -6.77541641E+01])),
        transport=gas_transport(geom='nonlinear',
                                diam=5.962,
                                well_depth=433.993))

species(name=u'C8H10(129)',
        atoms='H:10 C:8',
        thermo=(NASA([100.00, 1006.91],
                     [ 9.59099136E-01,  5.26052795E-02,  1.05118295E-05,
                      -4.60808495E-08,  1.99632153E-11,  2.84660811E+04,
                       2.42924801E+01]),
                NASA([1006.91, 5000.00],
                     [ 1.34171277E+01,  3.60526403E-02, -1.38971709E-05,
                       2.56761905E-09, -1.81631637E-13,  2.42875578E+04,
                      -4.41873377E+01])),
        transport=gas_transport(geom='nonlinear',
                                diam=5.916,
                                well_depth=426.619))

species(name=u'C6H8(180)',
        atoms='H:8 C:6',
        thermo=(NASA([100.00, 946.19],
                     [ 1.92826121E+00,  2.51788745E-02,  6.41517356E-05,
                      -1.05146160E-07,  4.31423785E-11,  2.35071327E+04,
                       1.81663596E+01]),
                NASA([946.19, 5000.00],
                     [ 1.60541419E+01,  1.69922214E-02, -4.56153081E-06,
                       8.26448548E-10, -6.55233208E-14,  1.85273044E+04,
                      -6.13908341E+01])),
        transport=gas_transport(geom='nonlinear',
                                diam=5.919,
                                well_depth=422.55))

species(name=u'C8H10(358)',
        atoms='H:10 C:8',
        thermo=(NASA([100.00, 1054.65],
                     [ 6.72091546E-01,  6.11593691E-02, -1.55178905E-05,
                      -1.87153910E-08,  1.01334757E-11,  3.47530173E+04,
                       2.38330102E+01]),
                NASA([1054.65, 5000.00],
                     [ 1.39204598E+01,  3.55783801E-02, -1.42172478E-05,
                       2.63888142E-09, -1.85291220E-13,  3.05867329E+04,
                      -4.72912546E+01])),
        transport=gas_transport(geom='nonlinear',
                                diam=6.152,
                                well_depth=443.634))

species(name=u'C8H10(359)',
        atoms='H:10 C:8',
        thermo=(NASA([100.00, 974.14],
                     [ 7.52292073E-01,  5.32106621E-02,  2.01817278E-05,
                      -6.52778035E-08,  2.89878146E-11,  3.23591465E+04,
                       2.52314241E+01]),
                NASA([974.14, 5000.00],
                     [ 1.73268645E+01,  2.90919192E-02, -1.03390451E-05,
                       1.91335333E-09, -1.39212851E-13,  2.70451476E+04,
                      -6.49978371E+01])),
        transport=gas_transport(geom='nonlinear',
                                diam=6.325,
                                well_depth=458.09))

species(name=u'C8H10(492)',
        atoms='H:10 C:8',
        thermo=(NASA([100.00, 971.37],
                     [ 5.83793425E-01,  5.72994650E-02,  1.13794374E-05,
                      -5.81861976E-08,  2.69994890E-11,  3.21766677E+04,
                       2.46308029E+01]),
                NASA([971.37, 5000.00],
                     [ 1.80582478E+01,  2.81973612E-02, -9.85959937E-06,
                       1.81028652E-09, -1.31393337E-13,  2.67599918E+04,
                      -6.95729446E+01])),
        transport=gas_transport(geom='nonlinear',
                                diam=6.239,
                                well_depth=452.769))

species(name=u'C8H10(493)',
        atoms='H:10 C:8',
        thermo=(NASA([100.00, 945.59],
                     [ 6.29787410E-01,  4.96964182E-02,  4.61833785E-05,
                      -1.04122440E-07,  4.58578138E-11,  2.97843070E+04,
                       2.54621792E+01]),
                NASA([945.59, 5000.00],
                     [ 2.19358282E+01,  2.09372693E-02, -5.54646425E-06,
                       9.83935848E-10, -7.70710513E-14,  2.30113499E+04,
                      -9.06425600E+01])),
        transport=gas_transport(geom='nonlinear',
                                diam=6.411,
                                well_depth=467.162))

species(name=u'C8H10(494)',
        atoms='H:10 C:8',
        thermo=(NASA([100.00, 971.37],
                     [ 5.83793425E-01,  5.72994650E-02,  1.13794374E-05,
                      -5.81861976E-08,  2.69994890E-11,  3.21766677E+04,
                       2.46308029E+01]),
                NASA([971.37, 5000.00],
                     [ 1.80582478E+01,  2.81973612E-02, -9.85959937E-06,
                       1.81028652E-09, -1.31393337E-13,  2.67599918E+04,
                      -6.95729446E+01])),
        transport=gas_transport(geom='nonlinear',
                                diam=6.279,
                                well_depth=450.754))

species(name=u'S(678)',
        atoms='H:14 C:10',
        thermo=(NASA([100.00, 1013.88],
                     [-1.03527521E+00,  8.99214218E-02, -2.04491278E-05,
                      -3.87098816E-08,  2.10701742E-11,  2.19500184E+04,
                       3.75590118E+01]),
                NASA([1013.88, 5000.00],
                     [ 2.29265009E+01,  4.12101070E-02, -1.61763087E-05,
                       3.05734712E-09, -2.20216432E-13,  1.47358972E+04,
                      -8.99879804E+01])),
        transport=gas_transport(geom='nonlinear',
                                diam=6.642,
                                well_depth=471.51))

species(name=u'S(682)',
        atoms='H:14 C:10',
        thermo=(NASA([100.00, 1012.53],
                     [-1.20605840E+00,  9.40401291E-02, -2.93709084E-05,
                      -3.14398490E-08,  1.89945163E-11,  2.17676358E+04,
                       3.69663981E+01]),
                NASA([1012.53, 5000.00],
                     [ 2.36543438E+01,  4.03205348E-02, -1.56993177E-05,
                       2.95478832E-09, -2.12434612E-13,  1.44525644E+04,
                      -9.45425192E+01])),
        transport=gas_transport(geom='nonlinear',
                                diam=6.596,
                                well_depth=464.35))

species(name=u'S(774)',
        atoms='H:12 C:10',
        thermo=(NASA([100.00, 961.57],
                     [-7.73090788E-01,  8.37804490E-02, -1.19997658E-05,
                      -5.21711567E-08,  2.82332523E-11,  3.24645409E+04,
                       3.27414200E+01]),
                NASA([961.57, 5000.00],
                     [ 2.39241885E+01,  3.19493294E-02, -1.05577388E-05,
                       1.88672262E-09, -1.36001763E-13,  2.53614962E+04,
                      -9.76782458E+01])),
        transport=gas_transport(geom='nonlinear',
                                diam=6.449,
                                well_depth=477.769))

species(name=u'S(777)',
        atoms='H:12 C:10',
        thermo=(NASA([100.00, 992.39],
                     [-3.42254551E-01,  7.71683346E-02, -7.67605279E-06,
                      -4.46729833E-08,  2.24653794E-11,  3.47433721E+04,
                       3.22910706E+01]),
                NASA([992.39, 5000.00],
                     [ 1.92580246E+01,  4.00630356E-02, -1.49181513E-05,
                       2.73334058E-09, -1.93844934E-13,  2.87900392E+04,
                      -7.25138146E+01])),
        transport=gas_transport(geom='nonlinear',
                                diam=6.404,
                                well_depth=470.641))

species(name=u'S(788)',
        atoms='H:16 C:12',
        thermo=(NASA([100.00, 1000.07],
                     [-2.50676216E+00,  1.18597942E-01, -4.75531505E-05,
                      -3.00184670E-08,  2.14807377E-11,  2.80448969E+04,
                       4.42693627E+01]),
                NASA([1000.07, 5000.00],
                     [ 2.94792849E+01,  4.43568405E-02, -1.67347440E-05,
                       3.12383744E-09, -2.24918664E-13,  1.89621537E+04,
                      -1.23471545E+02])),
        transport=gas_transport(geom='nonlinear',
                                diam=7.08,
                                well_depth=507.111))

species(name=u'S(896)',
        atoms='H:14 C:10',
        thermo=(NASA([100.00, 1160.87],
                     [-1.01015775E+00,  9.64221881E-02, -5.82621494E-05,
                       1.24156524E-08,  7.64227212E-13,  2.15791627E+04,
                       3.60761300E+01]),
                NASA([1160.87, 5000.00],
                     [ 1.85105543E+01,  4.75366078E-02, -1.88404984E-05,
                       3.41278515E-09, -2.33582160E-13,  1.58087073E+04,
                      -6.63452014E+01])),
        transport=gas_transport(geom='nonlinear',
                                diam=6.622,
                                well_depth=470.321))

species(name=u'S(933)',
        atoms='H:16 C:12',
        thermo=(NASA([100.00, 1000.07],
                     [-2.50676216E+00,  1.18597942E-01, -4.75531505E-05,
                      -3.00184670E-08,  2.14807377E-11,  2.80448969E+04,
                       4.49625099E+01]),
                NASA([1000.07, 5000.00],
                     [ 2.94792849E+01,  4.43568405E-02, -1.67347440E-05,
                       3.12383744E-09, -2.24918664E-13,  1.89621537E+04,
                      -1.22778398E+02])),
        transport=gas_transport(geom='nonlinear',
                                diam=7.08,
                                well_depth=507.111))

species(name=u'S(1037)',
        atoms='H:16 C:12',
        thermo=(NASA([100.00, 998.42],
                     [-2.67611497E+00,  1.22698915E-01, -5.64088079E-05,
                      -2.28401427E-08,  1.94468519E-11,  2.78624534E+04,
                       4.36716757E+01]),
                NASA([998.42, 5000.00],
                     [ 3.02046526E+01,  4.34717644E-02, -1.62604618E-05,
                       3.02193821E-09, -2.17192763E-13,  1.86797676E+04,
                      -1.28012326E+02])),
        transport=gas_transport(geom='nonlinear',
                                diam=7.035,
                                well_depth=500.128))

species(name=u'S(2116)',
        atoms='H:12 C:8',
        thermo=(NASA([100.00, 1093.32],
                     [ 2.36638241E-01,  7.13806010E-02, -3.04205030E-05,
                      -5.26764556E-09,  5.54498963E-12,  1.09350726E+04,
                       2.64146056E+01]),
                NASA([1093.32, 5000.00],
                     [ 1.41535930E+01,  4.07049777E-02, -1.61040135E-05,
                       2.93544444E-09, -2.02595395E-13,  6.68219791E+03,
                      -4.75007076E+01])),
        transport=gas_transport(geom='nonlinear',
                                diam=6.196,
                                well_depth=436.276))

species(name=u'S(2843)',
        atoms='H:14 C:10',
        thermo=(NASA([100.00, 979.13],
                     [-1.61786644E+00,  1.06166096E-01, -6.04080465E-05,
                      -5.41801887E-09,  1.20423333E-11,  1.49251320E+04,
                       3.39372406E+01]),
                NASA([979.13, 5000.00],
                     [ 2.48037279E+01,  3.66649106E-02, -1.28202507E-05,
                       2.27494797E-09, -1.59205363E-13,  7.90859579E+03,
                      -1.02383319E+02])),
        transport=gas_transport(geom='nonlinear',
                                diam=6.684,
                                well_depth=479.952))

species(name=u'S(2927)',
        atoms='H:14 C:10',
        thermo=(NASA([100.00, 996.17],
                     [-1.40484009E+00,  1.01563983E-01, -5.26982344E-05,
                      -8.95924912E-09,  1.20629221E-11,  1.86281319E+04,
                       3.68890663E+01]),
                NASA([996.17, 5000.00],
                     [ 2.33617794E+01,  3.90818563E-02, -1.42761516E-05,
                       2.57812553E-09, -1.81029820E-13,  1.18596618E+04,
                      -9.17063980E+01])),
        transport=gas_transport(geom='nonlinear',
                                diam=6.613,
                                well_depth=470.051))

species(name=u'S(2935)',
        atoms='H:14 C:10',
        thermo=(NASA([100.00, 1040.81],
                     [-1.05073492E+00,  9.58137999E-02, -4.83306648E-05,
                      -3.94501074E-09,  7.95633346E-12,  1.73878508E+04,
                       3.42048466E+01]),
                NASA([1040.81, 5000.00],
                     [ 1.97249915E+01,  4.51480836E-02, -1.73642287E-05,
                       3.15592695E-09, -2.19242889E-13,  1.14826995E+04,
                      -7.44493924E+01])),
        transport=gas_transport(geom='nonlinear',
                                diam=6.684,
                                well_depth=479.952))

species(name=u'S(3285)',
        atoms='H:12 C:8',
        thermo=(NASA([100.00, 1520.46],
                     [ 3.33256816E-01,  7.70233903E-02, -5.19909225E-05,
                       1.84125603E-08, -2.72977416E-12,  1.52768255E+04,
                       2.88681811E+01]),
                NASA([1520.46, 5000.00],
                     [ 1.38154091E+01,  4.15547541E-02, -1.69995468E-05,
                       3.07009936E-09, -2.07104980E-13,  1.11770134E+04,
                      -4.18245982E+01])),
        transport=gas_transport(geom='nonlinear',
                                diam=6.132,
                                well_depth=426.396))

species(name=u'S(3457)',
        atoms='H:12 C:8',
        thermo=(NASA([100.00, 1093.32],
                     [ 2.36637697E-01,  7.13806073E-02, -3.04205239E-05,
                      -5.26761999E-09,  5.54497945E-12,  1.11111992E+04,
                       2.69517569E+01]),
                NASA([1093.32, 5000.00],
                     [ 1.41535962E+01,  4.07049724E-02, -1.61040105E-05,
                       2.93544374E-09, -2.02595338E-13,  6.85832312E+03,
                      -4.69635767E+01])),
        transport=gas_transport(geom='nonlinear',
                                diam=6.196,
                                well_depth=436.276))

species(name=u'X(1)',
        atoms='X:1',
        thermo=(NASA([100.00, 1554.80],
                     [ 7.10139498E-03, -4.25619522E-05,  8.98533016E-08,
                      -7.80193649E-11,  2.32465471E-14, -8.76101712E-01,
                      -3.11211229E-02]),
                NASA([1554.80, 5000.00],
                     [ 1.60299900E-01, -2.52235409E-04,  1.14181275E-07,
                      -1.21471653E-11,  3.85790025E-16, -7.08100885E+01,
                      -9.09527530E-01])))

species(name=u'HX(5)',
        atoms='H:1 X:1',
        thermo=(NASA([100.00, 952.91],
                     [-3.80965452E-01,  5.47228709E-03,  2.60912778E-06,
                      -9.64961980E-09,  4.63946753E-12, -1.52247967E+04,
                       1.01725550E+00]),
                NASA([952.91, 5000.00],
                     [ 2.80339655E+00, -5.41047017E-04,  4.99507978E-07,
                      -7.54963647E-11,  3.06772366E-15, -1.61655461E+04,
                      -1.59436787E+01])))

species(name=u'C2H3X(27)',
        atoms='H:3 C:2 X:1',
        thermo=(NASA([100.00, 928.62],
                     [ 3.83091018E+00, -8.76381562E-03,  6.97956896E-05,
                      -8.67969174E-08,  3.33218121E-11,  5.95198367E+03,
                      -1.81151753E+01]),
                NASA([928.62, 5000.00],