units(length='cm', time='s', quantity='mol', act_energy='kcal/mol')

ideal_gas(name='gas',
          elements="H D T C Ci O Oi N Ne Ar He Si S Cl X",
          species="""n-heptane   Ar          He          Ne
                     N2          C2H4(2)     C4H8-1(3)   C4H8-2(4)
                     C4H6(7)     C6H8(9)     C3H6(24)    H2(47)
                     C6H10k(95)  C8H12(98)   C8H12(99)   C4H8(151)
                     C5H8h(195)  C7H12(202)  C7H12(204)  C5H8c(212)
                     C5H8g(229)  C7H12(234)  CH4(282)    C5H10(284)
                     C5H10(285)  C2H6(289)   C3H8(301)   C4H10(302)
                     C4H10(724)  S(1837)     S(1854)""",
          reactions='gas-*',
          initial_state=state(temperature=300.0, pressure=OneAtm))

ideal_interface(name='surface1',
                elements="H D T C Ci O Oi N Ne Ar He Si S Cl X",
                species="""X(1)        HX(5)       C2H3X(27)   allylX(28)
                          CH3X(29)    C2H5X(30)   C4H7X(31)   C4H7X(32)
                          C4H7X(33)   C4H7X(34)   C3H5X(35)   C4H5X(56)
                          C4H5X(57)   C6H9X(65)   C6H9X(66)   C6H9X(72)
                          C6H9X(81)   C8H13X(82)  C8H13X(83)  C8H11X(85)
                          C8H11X(86)  C4H7X(118)  C3H5X(145)  C6H9X(164)
                          C6H9X(165)  C3H7X(250)  C3H7X(251)  C5H7X(304)
                          SX(337)     SX(338)     SX(340)     C6H9X(500)
                          C5H7X(538)  C5H7X(591)  C5H7X(901)  SX(968)
                          SX(1030)    SX(1031)    SX(1032)    SX(1192)
                          SX(1193)    SX(1194)    SX(1207)    SX(1256)
                          SX(1326)    SX(1370)    SX(1549)    SX(1550)
                          SX(1551)    SX(1552)    SX(1553)    SX(1830)
                          SX(2309)    SX(2311)    SX(2312)    SX(2314)
                          SX(3106)    SX(3108)    SX(3109)    SX(3110)
                          SX(3235)""",
                site_density=2.72e-09,
                phases="gas",
          reactions='surface1-*',
                initial_state=state(temperature=300.0, pressure=OneAtm))

#-------------------------------------------------------------------------------
# Element data
#-------------------------------------------------------------------------------

element(symbol=u'X', atomic_mass=195.083)
element(symbol=u'Ci', atomic_mass=13.003)
element(symbol=u'D', atomic_mass=2.014)
element(symbol=u'Oi', atomic_mass=18.0)
element(symbol=u'T', atomic_mass=3.016)
#-------------------------------------------------------------------------------
# Species data
#-------------------------------------------------------------------------------

species(name=u'n-heptane',
        atoms='H:16 C:7',
        thermo=(NASA([100.00, 1262.73],
                     [-2.91681405E-03,  7.69373649E-02, -3.48025563E-05,
                       1.86095180E-09,  2.01573617E-12, -2.57829342E+04,
                       3.00312148E+01]),
                NASA([1262.73, 5000.00],
                     [ 1.38377915E+01,  4.85945016E-02, -1.95474548E-05,
                       3.52837178E-09, -2.39064676E-13, -3.05141556E+04,
                      -4.48642836E+01])))

species(name=u'Ar',
        atoms='Ar:1',
        thermo=(NASA([200.00, 1000.00],
                     [ 2.50000000E+00,  0.00000000E+00,  0.00000000E+00,
                       0.00000000E+00,  0.00000000E+00, -7.45375000E+02,
                       4.37967000E+00]),
                NASA([1000.00, 6000.00],
                     [ 2.50000000E+00,  0.00000000E+00,  0.00000000E+00,
                       0.00000000E+00,  0.00000000E+00, -7.45375000E+02,
                       4.37967000E+00])))

species(name=u'He',
        atoms='He:1',
        thermo=(NASA([200.00, 1000.00],
                     [ 2.50000000E+00,  0.00000000E+00,  0.00000000E+00,
                       0.00000000E+00,  0.00000000E+00, -7.45375000E+02,
                       9.28724000E-01]),
                NASA([1000.00, 6000.00],
                     [ 2.50000000E+00,  0.00000000E+00,  0.00000000E+00,
                       0.00000000E+00,  0.00000000E+00, -7.45375000E+02,
                       9.28724000E-01])))

species(name=u'Ne',
        atoms='Ne:1',
        thermo=(NASA([200.00, 1000.00],
                     [ 2.50000000E+00,  0.00000000E+00,  0.00000000E+00,
                       0.00000000E+00,  0.00000000E+00, -7.45375000E+02,
                       3.35532000E+00]),
                NASA([1000.00, 6000.00],
                     [ 2.50000000E+00,  0.00000000E+00,  0.00000000E+00,
                       0.00000000E+00,  0.00000000E+00, -7.45375000E+02,
                       3.35532000E+00])))

species(name=u'N2',
        atoms='N:2',
        thermo=(NASA([200.00, 1000.00],
                     [ 3.53101000E+00, -1.23661000E-04, -5.02999000E-07,
                       2.43531000E-09, -1.40881000E-12, -1.04698000E+03,
                       2.96747000E+00]),
                NASA([1000.00, 6000.00],
                     [ 2.95258000E+00,  1.39690000E-03, -4.92632000E-07,
                       7.86010000E-11, -4.60755000E-15, -9.23949000E+02,
                       5.87189000E+00])))

species(name=u'C2H4(2)',
        atoms='H:4 C:2',
        thermo=(NASA([100.00, 979.36],
                     [ 3.97471606E+00, -4.75844285E-03,  4.16783770E-05,
                      -4.51392516E-08,  1.54224761E-11,  4.91540746E+03,
                       3.62430844E+00]),
                NASA([979.36, 5000.00],
                     [ 3.55660610E+00,  1.10627464E-02, -4.17019079E-06,
                       7.85586770E-10, -5.70060829E-14,  4.32046489E+03,
                       2.17719479E+00])))

species(name=u'C4H8-1(3)',
        atoms='H:8 C:4',
        thermo=(NASA([100.00, 1007.28],
                     [ 2.58772906E+00,  2.32777969E-02,  1.93412349E-05,
                      -3.55496333E-08,  1.36906009E-11, -1.91872926E+03,
                       1.45750618E+01]),
                NASA([1007.28, 5000.00],
                     [ 7.20517168E+00,  2.36361568E-02, -9.03150028E-06,
                       1.65392666E-09, -1.16019260E-13, -3.79733937E+03,
                      -1.24426257E+01])))

species(name=u'C4H8-2(4)',
        atoms='H:8 C:4',
        thermo=(NASA([100.00, 1157.79],
                     [ 2.51998327E+00,  2.76812799E-02,  9.43783469E-07,
                      -1.25009101E-08,  4.67144666E-12, -3.34374767E+03,
                       1.30195623E+01]),
                NASA([1157.79, 5000.00],
                     [ 6.04225708E+00,  2.60072350E-02, -1.04843374E-05,
                       1.90880922E-09, -1.30600505E-13, -4.86276511E+03,
                      -7.52715109E+00])))

species(name=u'C4H6(7)',
        atoms='H:6 C:4',
        thermo=(NASA([100.00, 946.05],
                     [ 2.80599310E+00,  1.02584471E-02,  6.17260255E-05,
                      -9.01642687E-08,  3.59116961E-11,  1.16584972E+04,
                       1.20621434E+01]),
                NASA([946.05, 5000.00],
                     [ 1.24693720E+01,  1.00553901E-02, -2.41206872E-06,
                       4.57077303E-10, -3.93160571E-14,  8.01077795E+03,
                      -4.36374720E+01])))

species(name=u'C6H8(9)',
        atoms='H:8 C:6',
        thermo=(NASA([100.00, 941.22],
                     [ 1.38427980E+00,  4.14411503E-02,  1.94287417E-05,
                      -6.16688700E-08,  2.86503633E-11,  1.76317461E+04,
                       1.93257509E+01]),
                NASA([941.22, 5000.00],
                     [ 1.69619680E+01,  1.57221707E-02, -4.10118367E-06,
                       6.95736344E-10, -5.26521484E-14,  1.29061672E+04,
                      -6.44097553E+01])))

species(name=u'C3H6(24)',
        atoms='H:6 C:3',
        thermo=(NASA([100.00, 983.75],
                     [ 3.31912102E+00,  8.17958674E-03,  3.34736123E-05,
                      -4.36193684E-08,  1.58213364E-11,  7.49325328E+02,
                       9.54025058E+00]),
                NASA([983.75, 5000.00],
                     [ 5.36755173E+00,  1.70743019E-02, -6.35107626E-06,
                       1.16619529E-09, -8.27620279E-14, -4.87138326E+02,
                      -4.54467529E+00])))

species(name=u'H2(47)',
        atoms='H:2',
        thermo=(NASA([100.00, 1959.08],
                     [ 3.43536412E+00,  2.12710353E-04, -2.78625043E-07,
                       3.40267167E-10, -7.76031998E-14, -1.03135984E+03,
                      -3.90841732E+00]),
                NASA([1959.08, 5000.00],
                     [ 2.78816583E+00,  5.87640942E-04,  1.59010417E-07,
                      -5.52739026E-11,  4.34310984E-15, -5.96144270E+02,
                       1.12732655E-01])))

species(name=u'C6H10k(95)',
        atoms='H:10 C:6',
        thermo=(NASA([100.00, 1036.89],
                     [ 1.50874221E+00,  4.27939676E-02,  1.00407781E-05,
                      -3.76644958E-08,  1.56320088E-11,  7.74480595E+03,
                       2.33493905E+01]),
                NASA([1036.89, 5000.00],
                     [ 1.16601041E+01,  3.10397815E-02, -1.26024374E-05,
                       2.38495409E-09, -1.70150727E-13,  4.16633351E+03,
                      -3.30972272E+01])))

species(name=u'C8H12(98)',
        atoms='H:12 C:8',
        thermo=(NASA([100.00, 1002.94],
                     [ 1.69489980E-02,  7.28189377E-02, -2.16585698E-05,
                      -2.40807783E-08,  1.44597041E-11,  1.38562447E+04,
                       3.07679077E+01]),
                NASA([1002.94, 5000.00],
                     [ 1.77276883E+01,  3.45993801E-02, -1.29781828E-05,
                       2.37500136E-09, -1.67643536E-13,  8.67334638E+03,
                      -6.28559377E+01])))

species(name=u'C8H12(99)',
        atoms='H:12 C:8',
        thermo=(NASA([100.00, 1005.34],
                     [ 1.86706594E-01,  6.87128585E-02, -1.27834364E-05,
                      -3.12867866E-08,  1.65065107E-11,  1.40386710E+04,
                       3.13641644E+01]),
                NASA([1005.34, 5000.00],
                     [ 1.70020327E+01,  3.54850644E-02, -1.34528637E-05,
                       2.47700296E-09, -1.75378433E-13,  8.95581482E+03,
                      -5.83136097E+01])))

species(name=u'C4H8(151)',
        atoms='H:8 C:4',
        thermo=(NASA([100.00, 1061.33],
                     [ 2.52504770E+00,  2.64752782E-02,  7.08359238E-06,
                      -2.07731462E-08,  8.00430055E-12, -4.02607130E+03,
                       1.28857274E+01]),
                NASA([1061.33, 5000.00],
                     [ 6.48672669E+00,  2.49943921E-02, -9.83283171E-06,
                       1.79343299E-09, -1.24008235E-13, -5.62452310E+03,
                      -1.00316397E+01])))

species(name=u'C5H8h(195)',
        atoms='H:8 C:5',
        thermo=(NASA([100.00, 1945.28],
                     [ 1.54057150E+00,  4.70674891E-02, -3.00891500E-05,
                       9.08792775E-09, -1.08388618E-12,  1.04128608E+04,
                       1.86285770E+01]),
                NASA([1945.28, 5000.00],
                     [ 1.57976301E+01,  1.77513582E-02, -7.48362302E-06,
                       1.34081097E-09, -8.82587923E-14,  4.86605187E+03,
                      -5.96402586E+01])))

species(name=u'C7H12(202)',
        atoms='H:12 C:7',
        thermo=(NASA([100.00, 1044.52],
                     [ 6.90395995E-01,  6.05209126E-02, -1.08892064E-05,
                      -2.34065671E-08,  1.17276344E-11,  3.38297442E+03,
                       2.83745539E+01]),
                NASA([1044.52, 5000.00],
                     [ 1.34764727E+01,  3.73792242E-02, -1.47395219E-05,
                       2.71950205E-09, -1.90466279E-13, -6.96739574E+02,
                      -4.06108760E+01])))

species(name=u'C7H12(204)',
        atoms='H:12 C:7',
        thermo=(NASA([100.00, 1131.99],
                     [ 5.84283501E-01,  6.47608593E-02, -2.67633524E-05,
                      -4.34737531E-09,  4.44182478E-12,  3.09569841E+03,
                       2.80653782E+01]),
                NASA([1131.99, 5000.00],
                     [ 1.29982914E+01,  3.85892124E-02, -1.55301333E-05,
                       2.84554471E-09, -1.96328801E-13, -8.48502352E+02,
                      -3.83715994E+01])))

species(name=u'C5H8c(212)',
        atoms='H:8 C:5',
        thermo=(NASA([100.00, 1004.86],
                     [ 1.98273955E+00,  3.49998332E-02,  6.98515281E-06,
                      -3.05031334E-08,  1.32246652E-11,  6.96521034E+03,
                       1.60818191E+01]),
                NASA([1004.86, 5000.00],
                     [ 1.01246420E+01,  2.42323877E-02, -9.24886971E-06,
                       1.70115950E-09, -1.20059732E-13,  4.23624320E+03,
                      -2.86745770E+01])))

species(name=u'C5H8g(229)',
        atoms='H:8 C:5',
        thermo=(NASA([100.00, 1049.25],
                     [ 2.01062155E+00,  3.15407187E-02,  2.07789480E-05,
                      -4.44088985E-08,  1.72419112E-11,  7.01383967E+03,
                       1.65768346E+01]),
                NASA([1049.25, 5000.00],
                     [ 1.14809937E+01,  2.45641673E-02, -1.08867259E-05,
                       2.16707025E-09, -1.59145781E-13,  3.42314914E+03,
                      -3.72078866E+01])))

species(name=u'C7H12(234)',
        atoms='H:12 C:7',
        thermo=(NASA([100.00, 1118.33],
                     [ 7.68978174E-01,  6.04854802E-02, -1.73306455E-05,
                      -1.22231984E-08,  6.75038633E-12,  3.45359644E+03,
                       2.84516256E+01]),
                NASA([1118.33, 5000.00],
                     [ 1.21603701E+01,  3.96569985E-02, -1.61063018E-05,
                       2.97092237E-09, -2.05965892E-13, -3.39677256E+02,
                      -3.33473621E+01])))

species(name=u'CH4(282)',
        atoms='H:4 C:1',
        thermo=(NASA([100.00, 1084.12],
                     [ 4.20541524E+00, -5.35557362E-03,  2.51123265E-05,
                      -2.13762843E-08,  5.97523937E-12, -1.01619433E+04,
                      -9.21279283E-01]),
                NASA([1084.12, 5000.00],
                     [ 9.08265721E-01,  1.14540858E-02, -4.57173828E-06,
                       8.29191671E-10, -5.66314895E-14, -9.71997444E+03,
                       1.39930944E+01])))

species(name=u'C5H10(284)',
        atoms='H:10 C:5',
        thermo=(NASA([100.00, 1883.68],
                     [ 2.29195787E+00,  4.21076449E-02, -1.49304794E-05,
                      -1.22102583E-10,  5.99441346E-13, -4.98138150E+03,
                       1.67887076E+01]),
                NASA([1883.68, 5000.00],
                     [ 1.47438472E+01,  2.72460315E-02, -1.23172689E-05,
                       2.21660273E-09, -1.44084857E-13, -1.17269008E+04,
                      -5.66226025E+01])))

species(name=u'C5H10(285)',
        atoms='H:10 C:5',
        thermo=(NASA([100.00, 960.03],
                     [ 1.92494941E+00,  3.23872757E-02,  3.28626489E-05,
                      -6.30221575E-08,  2.59714460E-11, -5.50776492E+03,
                       1.86664331E+01]),
                NASA([960.03, 5000.00],
                     [ 1.12167303E+01,  2.64314616E-02, -9.01591566E-06,
                       1.60298644E-09, -1.13436933E-13, -8.80144986E+03,
                      -3.36443365E+01])))

species(name=u'C2H6(289)',
        atoms='H:6 C:2',
        thermo=(NASA([100.00, 1012.42],
                     [ 3.72239291E+00,  1.65083841E-03,  3.44175530E-05,
                      -3.76858229E-08,  1.24450657E-11, -1.15575901E+04,
                       4.68247999E+00]),
                NASA([1012.42, 5000.00],
                     [ 2.82848257E+00,  1.73040568E-02, -6.73334245E-06,
                       1.23742024E-09, -8.65676410E-14, -1.19978080E+04,
                       5.93811707E+00])))

species(name=u'C3H8(301)',
        atoms='H:8 C:3',
        thermo=(NASA([100.00, 989.99],
                     [ 3.06336167E+00,  1.29214561E-02,  3.47032808E-05,
                      -4.70946154E-08,  1.71384141E-11, -1.43905789E+04,
                       1.07835592E+01]),
                NASA([989.99, 5000.00],
                     [ 5.60440043E+00,  2.19528785E-02, -8.22080610E-06,
                       1.50103993E-09, -1.05635358E-13, -1.58394038E+04,
                      -6.22623300E+00])))

species(name=u'C4H10(302)',
        atoms='H:10 C:4',
        thermo=(NASA([100.00, 1147.60],
                     [ 2.16918413E+00,  3.43904632E-02, -1.61564236E-06,
                      -1.30726562E-08,  5.17350451E-12, -1.72505136E+04,
                       1.46546701E+01]),
                NASA([1147.60, 5000.00],
                     [ 6.78903089E+00,  3.03598162E-02, -1.21262050E-05,
                       2.19945025E-09, -1.50289312E-13, -1.91057969E+04,
                      -1.17329103E+01])))

species(name=u'C4H10(724)',
        atoms='H:10 C:4',
        thermo=(NASA([100.00, 987.08],
                     [ 2.18594095E+00,  3.04312883E-02,  1.83387931E-05,
                      -4.04090927E-08,  1.64481872E-11, -1.82080408E+04,
                       1.37947641E+01]),
                NASA([987.08, 5000.00],
                     [ 8.84811268E+00,  2.61183046E-02, -9.57929598E-06,
                       1.72895160E-09, -1.21006821E-13, -2.06283634E+04,
                      -2.38575760E+01])))

species(name=u'S(1837)',
        atoms='H:14 C:9',
        thermo=(NASA([100.00, 1033.76],
                     [-5.65335332E-01,  8.47310838E-02, -3.08977113E-05,
                      -1.77732609E-08,  1.20851089E-11,  1.12058940E+04,
                       3.63093306E+01]),
                NASA([1033.76, 5000.00],
                     [ 1.85555439E+01,  4.28306026E-02, -1.66554054E-05,
                       3.06539570E-09, -2.15112108E-13,  5.53819046E+03,
                      -6.48648690E+01])))

species(name=u'S(1854)',
        atoms='H:14 C:8',
        thermo=(NASA([100.00, 1032.47],
                     [-1.52197289E-01,  7.68454143E-02, -2.34614456E-05,
                      -2.05041347E-08,  1.22957650E-11, -1.31857568E+03,
                       3.21075857E+01]),
                NASA([1032.47, 5000.00],
                     [ 1.66387280E+01,  4.18183293E-02, -1.61931864E-05,
                       2.96808824E-09, -2.07607085E-13, -6.38610066E+03,
                      -5.71853008E+01])))

species(name=u'X(1)',
        atoms='X:1',
        thermo=(NASA([100.00, 1554.80],
                     [ 7.10139498E-03, -4.25619522E-05,  8.98533016E-08,
                      -7.80193649E-11,  2.32465471E-14, -8.76101712E-01,
                      -3.11211229E-02]),
                NASA([1554.80, 5000.00],
                     [ 1.60299900E-01, -2.52235409E-04,  1.14181275E-07,
                      -1.21471653E-11,  3.85790025E-16, -7.08100885E+01,
                      -9.09527530E-01])))

species(name=u'HX(5)',
        atoms='H:1 X:1',
        thermo=(NASA([100.00, 952.91],
                     [-3.80965452E-01,  5.47228709E-03,  2.60912778E-06,
                      -9.64961980E-09,  4.63946753E-12,  7.98421583E+03,
                       1.01725550E+00]),
                NASA([952.91, 5000.00],
                     [ 2.80339655E+00, -5.41047017E-04,  4.99507978E-07,
                      -7.54963647E-11,  3.06772366E-15,  7.04346641E+03,
                      -1.59436787E+01])))

species(name=u'C2H3X(27)',
        atoms='H:3 C:2 X:1',
        thermo=(NASA([100.00, 928.62],
                     [ 3.83091018E+00, -8.76381562E-03,  6.97956896E-05,
                      -8.67969174E-08,  3.33218121E-11,  3.77613875E+03,
                      -1.81151753E+01]),
                NASA([928.62, 5000.00],
                     [ 8.78054562E+00,  1.92497720E-03,  8.25825014E-07,
                      -1.63749818E-10,  5.71728318E-15,  1.47673562E+03,
                      -4.90588618E+01])))

species(name=u'allylX(28)',
        atoms='H:5 C:3 X:1',
        thermo=(NASA([100.00, 937.34],
                     [ 3.44148119E+00, -3.47700003E-03,  8.25933681E-05,
                      -1.05556823E-07,  4.04445066E-11,  2.34300616E+02,
                      -6.88846669E+00]),
                NASA([937.34, 5000.00],
                     [ 9.98148902E+00,  8.92268754E-03, -1.75442587E-06,
                       3.12285771E-10, -2.84156572E-14, -2.76249703E+03,
                      -4.74626902E+01])))

species(name=u'CH3X(29)',
        atoms='H:3 C:1 X:1',
        thermo=(NASA([100.00, 848.30],
                     [-1.21090496E+00,  2.92390681E-02, -4.49011079E-05,
                       3.86009808E-08, -1.30361041E-11, -3.94437789E+03,
                       6.80939750E+00]),
                NASA([848.30, 5000.00],
                     [ 1.62290877E+00,  1.12987268E-02, -5.08316908E-06,
                       9.46833581E-10, -6.42885536E-14, -4.26044280E+03,
                      -5.42501059E+00])))

species(name=u'C2H5X(30)',
        atoms='H:5 C:2 X:1',
        thermo=(NASA([100.00, 803.81],
                     [-1.64625424E+00,  3.89626488E-02, -4.31128887E-05,
                       2.97076939E-08, -8.80222915E-12, -7.92805291E+03,
                       9.27323637E+00]),
                NASA([803.81, 5000.00],
                     [ 1.97598112E+00,  2.09382766E-02, -9.47916922E-06,
                       1.81392948E-09, -1.27206354E-13, -8.51040169E+03,
                      -7.41107956E+00])))

species(name=u'C4H7X(31)',
        atoms='H:7 C:4 X:1',
        thermo=(NASA([100.00, 971.02],
                     [ 2.64365035E+00,  1.79007589E-02,  4.24443189E-05,
                      -6.44028479E-08,  2.49593993E-11, -3.72240882E+03,
                      -6.69991651E+00]),
                NASA([971.02, 5000.00],
                     [ 9.25871667E+00,  2.04064152E-02, -7.39143670E-06,
                       1.37021231E-09, -9.94133357E-14, -6.40989294E+03,
                      -4.56426102E+01])))

species(name=u'C4H7X(32)',
        atoms='H:7 C:4 X:1',
        thermo=(NASA([100.00, 986.67],
                     [ 2.45798205E+00,  2.47217336E-02,  2.01285964E-05,
                      -4.02735564E-08,  1.62485845E-11,  4.67977823E+03,
                      -5.12991781E+00]),
                NASA([986.67, 5000.00],
                     [ 8.87898065E+00,  2.09043993E-02, -7.83851223E-06,
                       1.44076477E-09, -1.02346878E-13,  2.33142212E+03,
                      -4.15007572E+01])))

species(name=u'C4H7X(33)',
        atoms='H:7 C:4 X:1',
        thermo=(NASA([100.00, 965.06],
                     [ 2.56877619E+00,  1.97500674E-02,  3.72961301E-05,
                      -6.04017092E-08,  2.39989018E-11, -3.99382968E+03,
                      -8.56564322E+00]),
                NASA([965.06, 5000.00],
                     [ 9.89778724E+00,  1.86142959E-02, -6.38884453E-06,
                       1.17309353E-09, -8.55406646E-14, -6.77012088E+03,
                      -5.07182348E+01])))

species(name=u'C4H7X(34)',
        atoms='H:7 C:4 X:1',
        thermo=(NASA([100.00, 949.35],
                     [ 2.54254539E+00,  1.77389010E-02,  4.93877612E-05,
                      -7.72878178E-08,  3.10660019E-11, -2.76819637E+03,
                      -8.46783968E+00]),
                NASA([949.35, 5000.00],
                     [ 1.15220223E+01,  1.60005944E-02, -4.89823595E-06,
                       8.83972924E-10, -6.63710570E-14, -6.09972871E+03,
                      -5.98888028E+01])))

species(name=u'C3H5X(35)',
        atoms='H:5 C:3 X:1',
        thermo=(NASA([100.00, 939.06],
                     [ 3.23683359E+00,  3.73132320E-03,  6.01028900E-05,
                      -8.16245569E-08,  3.18536011E-11, -3.71028503E+01,
                      -1.35295467E+01]),
                NASA([939.06, 5000.00],
                     [ 9.70183185E+00,  9.48309646E-03, -2.25953763E-06,
                       3.98431327E-10, -3.27118882E-14, -2.71913178E+03,
                      -5.21282869E+01])))

species(name=u'C4H5X(56)',
        atoms='H:5 C:4 X:1',
        thermo=(NASA([100.00, 936.52],
                     [ 2.68471723E+00,  1.36244496E-02,  5.32591849E-05,
                      -8.32912448E-08,  3.41499374E-11,  5.86936893E+03,
                      -1.06510487E+01]),
                NASA([936.52, 5000.00],
                     [ 1.29012266E+01,  8.96921861E-03, -1.71920076E-06,
                       2.89744517E-10, -2.58686364E-14,  2.24632999E+03,
                      -6.83963397E+01])))

species(name=u'C4H5X(57)',
        atoms='H:5 C:4 X:1',
        thermo=(NASA([100.00, 928.63],
                     [ 2.64232495E+00,  8.31109593E-03,  8.12146261E-05,
                      -1.21398701E-07,  4.98630759E-11,  1.10522777E+04,
                      -1.03932963E+01]),
                NASA([928.63, 5000.00],
                     [ 1.69490474E+01,  2.00818812E-03,  2.03468841E-06,
                      -4.02657023E-10,  1.85400094E-14,  6.00978331E+03,
                      -9.11990785E+01])))

species(name=u'C6H9X(65)',
        atoms='H:9 C:6 X:1',
        thermo=(NASA([100.00, 999.55],
                     [ 1.67673103E+00,  3.46229627E-02,  3.95069460E-05,
                      -7.18132776E-08,  2.83897957E-11,  6.27424622E+03,
                       1.40551907E+00]),
                NASA([999.55, 5000.00],
                     [ 1.32935266E+01,  2.82673556E-02, -1.11810126E-05,
                       2.16230262E-09, -1.59014467E-13,  1.94710734E+03,
                      -6.46621998E+01])))

species(name=u'C6H9X(66)',
        atoms='H:9 C:6 X:1',
        thermo=(NASA([100.00, 959.61],
                     [ 9.97316280E-01,  5.45668000E-02, -1.20062319E-05,
                      -2.57197904E-08,  1.47243152E-11,  1.30766376E+04,
                       4.10405037E+00]),
                NASA([959.61, 5000.00],
                     [ 1.47073597E+01,  2.48050721E-02, -8.29407345E-06,
                       1.44239761E-09, -1.00346470E-13,  9.18443716E+03,
                      -6.80438434E+01])))

species(name=u'C6H9X(72)',
        atoms='H:9 C:6 X:1',
        thermo=(NASA([100.00, 995.64],
                     [ 1.00158150E+00,  5.37831764E-02, -1.05077719E-05,
                      -2.52898569E-08,  1.36194364E-11,  1.25541444E+04,
                       4.73928304E+00]),
                NASA([995.64, 5000.00],
                     [ 1.48279675E+01,  2.56881420E-02, -9.53965888E-06,
                       1.75504791E-09, -1.24935257E-13,  8.44021945E+03,
                      -6.87379050E+01])))

species(name=u'C6H9X(81)',
        atoms='H:9 C:6 X:1',
        thermo=(NASA([100.00, 1020.19],
                     [ 1.54907261E+00,  4.00615562E-02,  2.02852896E-05,
                      -5.00976179E-08,  2.03551234E-11,  1.29645881E+04,
                       4.81068232E+00]),
                NASA([1020.19, 5000.00],
                     [ 1.26206811E+01,  2.92925240E-02, -1.18732029E-05,
                       2.27872947E-09, -1.65053118E-13,  9.00694031E+03,
                      -5.71497411E+01])))

species(name=u'C8H13X(82)',
        atoms='H:13 C:8 X:1',
        thermo=(NASA([100.00, 1086.80],
                     [ 4.05746964E-02,  7.46061910E-02, -2.71307281E-05,
                      -1.06245728E-08,  7.47686610E-12,  3.62021205E+03,
                       1.30622920E+01]),
                NASA([1086.80, 5000.00],
                     [ 1.44614264E+01,  4.46854909E-02, -1.77934151E-05,
                       3.25203729E-09, -2.24823444E-13, -8.81812583E+02,
                      -6.40017594E+01])))

species(name=u'C8H13X(83)',
        atoms='H:13 C:8 X:1',
        thermo=(NASA([100.00, 962.58],
                     [-8.50632885E-02,  7.19628197E-02, -9.55363794E-07,
                      -5.20841139E-08,  2.59698691E-11,  3.94929667E+03,
                       1.24797974E+01]),
                NASA([962.58, 5000.00],
                     [ 1.87814445E+01,  3.64631505E-02, -1.24875123E-05,
                       2.20322328E-09, -1.54635387E-13, -1.67028347E+03,
                      -8.81443541E+01])))

species(name=u'C8H11X(85)',
        atoms='H:11 C:8 X:1',
        thermo=(NASA([100.00, 972.95],
                     [ 2.21466010E-01,  6.31114234E-02,  1.32714165E-05,
                      -6.52453350E-08,  3.01543312E-11,  1.25028893E+04,
                       1.01869045E+01]),
                NASA([972.95, 5000.00],
                     [ 1.97221836E+01,  3.08923682E-02, -1.09841195E-05,
                       2.02951282E-09, -1.47661214E-13,  6.43855772E+03,
                      -9.50219150E+01])))

species(name=u'C8H11X(86)',
        atoms='H:11 C:8 X:1',
        thermo=(NASA([100.00, 983.02],
                     [-3.67827662E-02,  7.59663649E-02, -3.27274618E-05,
                      -1.32879129E-08,  1.12380221E-11,  1.92455754E+04,
                       1.03948607E+01]),
                NASA([983.02, 5000.00],
                     [ 1.71800224E+01,  3.42412079E-02, -1.22903392E-05,
                       2.17110374E-09, -1.49909826E-13,  1.44918062E+04,
                      -7.93340433E+01])))

species(name=u'C4H7X(118)',
        atoms='H:7 C:4 X:1',
        thermo=(NASA([100.00, 947.75],
                     [ 2.86440387E+00,  8.12954614E-03,  7.59606536E-05,
                      -1.03618267E-07,  4.00694538E-11, -3.70356532E+03,
                      -2.40038485E+00]),
                NASA([947.75, 5000.00],
                     [ 1.10489656E+01,  1.63914163E-02, -4.86280875E-06,
                       8.89632629E-10, -6.85128174E-14, -7.17738152E+03,
                      -5.15890409E+01])))

species(name=u'C3H5X(145)',
        atoms='H:5 C:3 X:1',
        thermo=(NASA([100.00, 946.02],
                     [ 3.27693369E+00,  3.84253259E-03,  5.69854034E-05,
                      -7.61339325E-08,  2.92928923E-11, -1.82455224E+03,
                      -1.34283913E+01]),