units(length='cm', time='s', quantity='mol', act_energy='kcal/mol')

ideal_gas(name='gas',
          elements="H D T C Ci O Oi N Ne Ar He Si S Cl X",
          species="""Ne         N2         He(2)      CH4(3)     H2(4)
                     C2H6(5)    CH3(6)     C3H8(7)    H(8)       C2H5(9)
                     C4H8(10)   C2H4(11)   O2(13)     H2O(18)    CO2(19)
                     CO(21)     C2H4(48)   C4H8a(86)  C4H6(99)""",
          reactions='gas-*',
          transport='Mix',
          initial_state=state(temperature=300.0, pressure=OneAtm))

ideal_interface(name='surface1',
                elements="H D T C Ci O Oi N Ne Ar He Si S Cl X",
                species="""X(1)       HX(12)     OX(14)     CH3X(15)
                          HOX(16)    H2OX(17)   CO2X(20)   OCX(22)
                          CX(23)     CH2X(24)   CHX(25)    HeX(49)
                          C2H3X(58)  C2H4X(64)""",
                site_density=2.72e-09,
                phases="gas",
          reactions='surface1-*',
                initial_state=state(temperature=300.0, pressure=OneAtm))

#-------------------------------------------------------------------------------
# Element data
#-------------------------------------------------------------------------------

element(symbol=u'X', atomic_mass=195.083)
element(symbol=u'Ci', atomic_mass=13.003)
element(symbol=u'D', atomic_mass=2.014)
element(symbol=u'Oi', atomic_mass=18.0)
element(symbol=u'T', atomic_mass=3.016)
#-------------------------------------------------------------------------------
# Species data
#-------------------------------------------------------------------------------

species(name=u'Ne',
        atoms='Ne:1',
        thermo=(NASA([200.00, 1000.00],
                     [ 2.50000000E+00,  0.00000000E+00,  0.00000000E+00,
                       0.00000000E+00,  0.00000000E+00, -7.45375000E+02,
                       3.35532000E+00]),
                NASA([1000.00, 6000.00],
                     [ 2.50000000E+00,  0.00000000E+00,  0.00000000E+00,
                       0.00000000E+00,  0.00000000E+00, -7.45375000E+02,
                       3.35532000E+00])),
        transport=gas_transport(geom='atom',
                                diam=3.758,
                                well_depth=148.6))

species(name=u'N2',
        atoms='N:2',
        thermo=(NASA([200.00, 1000.00],
                     [ 3.53101000E+00, -1.23661000E-04, -5.02999000E-07,
                       2.43531000E-09, -1.40881000E-12, -1.04698000E+03,
                       2.96747000E+00]),
                NASA([1000.00, 6000.00],
                     [ 2.95258000E+00,  1.39690000E-03, -4.92632000E-07,
                       7.86010000E-11, -4.60755000E-15, -9.23949000E+02,
                       5.87189000E+00])),
        transport=gas_transport(geom='linear',
                                diam=3.621,
                                well_depth=97.53,
                                polar=1.76,
                                rot_relax=4.0))

species(name=u'He(2)',
        atoms='He:1',
        thermo=(NASA([200.00, 1000.00],
                     [ 2.50000000E+00,  0.00000000E+00,  0.00000000E+00,
                       0.00000000E+00,  0.00000000E+00, -7.45375000E+02,
                       9.28724000E-01]),
                NASA([1000.00, 6000.00],
                     [ 2.50000000E+00,  0.00000000E+00,  0.00000000E+00,
                       0.00000000E+00,  0.00000000E+00, -7.45375000E+02,
                       9.28724000E-01])),
        transport=gas_transport(geom='atom',
                                diam=2.576,
                                well_depth=10.2))

species(name=u'CH4(3)',
        atoms='H:4 C:1',
        thermo=(NASA([100.00, 1084.15],
                     [ 4.20540072E+00, -5.35540640E-03,  2.51117636E-05,
                      -2.13755910E-08,  5.97496145E-12, -1.01619427E+04,
                      -9.21226951E-01]),
                NASA([1084.15, 5000.00],
                     [ 9.08349401E-01,  1.14539479E-02, -4.57166053E-06,
                       8.29173612E-10, -5.66300105E-14, -9.72001110E+03,
                       1.39926204E+01])),
        transport=gas_transport(geom='nonlinear',
                                diam=3.746,
                                well_depth=141.4,
                                polar=2.6,
                                rot_relax=13.0))

species(name=u'H2(4)',
        atoms='H:2',
        thermo=(NASA([100.00, 1959.08],
                     [ 3.43536411E+00,  2.12710383E-04, -2.78625110E-07,
                       3.40267219E-10, -7.76032129E-14, -1.03135984E+03,
                      -3.90841731E+00]),
                NASA([1959.08, 5000.00],
                     [ 2.78816619E+00,  5.87640475E-04,  1.59010635E-07,
                      -5.52739465E-11,  4.34311304E-15, -5.96144481E+02,
                       1.12730527E-01])),
        transport=gas_transport(geom='linear',
                                diam=2.833,
                                well_depth=59.7))

species(name=u'C2H6(5)',
        atoms='H:6 C:2',
        thermo=(NASA([100.00, 1012.42],
                     [ 3.72239308E+00,  1.65083640E-03,  3.44175601E-05,
                      -3.76858321E-08,  1.24450696E-11, -1.15575902E+04,
                       4.68247939E+00]),
                NASA([1012.42, 5000.00],
                     [ 2.82848184E+00,  1.73040581E-02, -6.73334315E-06,
                       1.23742041E-09, -8.65676548E-14, -1.19978077E+04,
                       5.93812118E+00])),
        transport=gas_transport(geom='nonlinear',
                                diam=4.302,
                                well_depth=252.3,
                                rot_relax=1.5))

species(name=u'CH3(6)',
        atoms='H:3 C:1',
        thermo=(NASA([100.00, 697.63],
                     [ 3.96043178E+00,  5.92930195E-04,  8.78578951E-06,
                      -9.88035524E-09,  3.63236942E-12,  1.64218817E+04,
                       3.39862787E-01]),
                NASA([697.63, 5000.00],
                     [ 3.09511262E+00,  5.55429714E-03, -1.88158748E-06,
                       3.13334732E-10, -2.05194931E-14,  1.65426190E+04,
                       4.20297474E+00])),
        transport=gas_transport(geom='nonlinear',
                                diam=3.8,
                                well_depth=144.0))

species(name=u'C3H8(7)',
        atoms='H:8 C:3',
        thermo=(NASA([100.00, 989.99],
                     [ 3.06337235E+00,  1.29213276E-02,  3.47037401E-05,
                      -4.70952219E-08,  1.71386763E-11, -1.43905793E+04,
                       1.07835211E+01]),
                NASA([989.99, 5000.00],
                     [ 5.60435845E+00,  2.19529500E-02, -8.22084738E-06,
                       1.50104968E-09, -1.05636167E-13, -1.58393862E+04,
                      -6.22599672E+00])),
        transport=gas_transport(geom='nonlinear',
                                diam=4.982,
                                well_depth=266.801,
                                rot_relax=1.0))

species(name=u'H(8)',
        atoms='H:1',
        thermo=(NASA([100.00, 4383.16],
                     [ 2.50000000E+00, -2.38914167E-13,  3.12709494E-16,
                      -1.33367320E-19,  1.74989654E-23,  2.54742178E+04,
                      -4.44972897E-01]),
                NASA([4383.16, 5000.00],
                     [ 2.50003447E+00, -3.04996987E-08,  1.01101187E-11,
                      -1.48796738E-15,  8.20356170E-20,  2.54741866E+04,
                      -4.45191184E-01])),
        transport=gas_transport(geom='atom',
                                diam=2.05,
                                well_depth=145.0))

species(name=u'C2H5(9)',
        atoms='H:5 C:2',
        thermo=(NASA([100.00, 1006.87],
                     [ 3.68745380E+00,  3.06903510E-03,  2.55868228E-05,
                      -2.94070210E-08,  9.94049079E-12,  1.31153653E+04,
                       6.96689006E+00]),
                NASA([1006.87, 5000.00],
                     [ 3.53785893E+00,  1.37310809E-02, -5.29559886E-06,
                       9.71471661E-10, -6.80280220E-14,  1.26351584E+04,
                       5.15538530E+00])),
        transport=gas_transport(geom='nonlinear',
                                diam=4.302,
                                well_depth=252.3,
                                rot_relax=1.5))

species(name=u'C4H8(10)',
        atoms='H:8 C:4',
        thermo=(NASA([100.00, 1007.28],
                     [ 2.58772978E+00,  2.32777883E-02,  1.93412653E-05,
                      -3.55496729E-08,  1.36906178E-11, -1.91872929E+03,
                       1.45750592E+01]),
                NASA([1007.28, 5000.00],
                     [ 7.20516863E+00,  2.36361619E-02, -9.03150325E-06,
                       1.65392736E-09, -1.16019318E-13, -3.79733809E+03,
                      -1.24426086E+01])),
        transport=gas_transport(geom='nonlinear',
                                diam=5.176,
                                well_depth=357.002,
                                rot_relax=1.0))

species(name=u'C2H4(11)',
        atoms='H:4 C:2',
        thermo=(NASA([100.00, 979.37],
                     [ 3.97469045E+00, -4.75813325E-03,  4.16772624E-05,
                      -4.51377676E-08,  1.54218287E-11,  4.91540855E+03,
                       3.62439976E+00]),
                NASA([979.37, 5000.00],
                     [ 3.55670229E+00,  1.10625819E-02, -4.17009559E-06,
                       7.85564219E-10, -5.70042086E-14,  4.32042473E+03,
                       2.17665377E+00])),
        transport=gas_transport(geom='nonlinear',
                                diam=3.971,
                                well_depth=280.8,
                                rot_relax=1.5))

species(name=u'O2(13)',
        atoms='O:2',
        thermo=(NASA([100.00, 1074.56],
                     [ 3.53732118E+00, -1.21570207E-03,  5.31615377E-06,
                      -4.89440387E-09,  1.45843816E-12, -1.03858843E+03,
                       4.68368631E+00]),
                NASA([1074.56, 5000.00],
                     [ 3.15382772E+00,  1.67803228E-03, -7.69967779E-07,
                       1.51273960E-10, -1.08781182E-14, -1.04082030E+03,
                       6.16751919E+00])),
        transport=gas_transport(geom='linear',
                                diam=3.467,
                                well_depth=106.7))

species(name=u'H2O(18)',
        atoms='H:2 O:1',
        thermo=(NASA([100.00, 1130.25],
                     [ 4.05763720E+00, -7.87951343E-04,  2.90882564E-06,
                      -1.47524910E-09,  2.12866372E-13, -3.02815867E+04,
                      -3.11369025E-01]),
                NASA([1130.25, 5000.00],
                     [ 2.84324104E+00,  2.75110073E-03, -7.81040007E-07,
                       1.07245603E-10, -5.79408217E-15, -2.99586086E+04,
                       5.91047337E+00])),
        transport=gas_transport(geom='nonlinear',
                                diam=2.641,
                                well_depth=809.102,
                                polar=1.76,
                                rot_relax=4.0))

species(name=u'CO2(19)',
        atoms='C:1 O:2',
        thermo=(NASA([100.00, 978.22],
                     [ 3.28083821E+00,  2.50193291E-03,  8.08164577E-06,
                      -1.20506695E-08,  4.66526645E-12, -4.84008301E+04,
                       6.00083693E+00]),
                NASA([978.22, 5000.00],
                     [ 4.67429780E+00,  2.60958835E-03, -9.85659769E-07,
                       1.95706729E-10, -1.49830320E-14, -4.89512267E+04,
                      -2.11090702E+00])),
        transport=gas_transport(geom='linear',
                                diam=3.941,
                                well_depth=195.201))

species(name=u'CO(21)',
        atoms='C:1 O:1',
        thermo=(NASA([100.00, 1571.64],
                     [ 3.56837982E+00, -8.52124063E-04,  2.48917390E-06,
                      -1.56330672E-09,  3.13594213E-13, -1.42842549E+04,
                       3.57912239E+00]),
                NASA([1571.64, 5000.00],
                     [ 2.91306987E+00,  1.64657389E-03, -6.88612820E-07,
                       1.21036930E-10, -7.84014743E-15, -1.41808862E+04,
                       6.71043900E+00])),
        transport=gas_transport(geom='linear',
                                diam=3.69,
                                well_depth=91.7,
                                polar=1.76,
                                rot_relax=4.0))

species(name=u'C2H4(48)',
        atoms='H:4 C:2',
        thermo=(NASA([100.00, 846.10],
                     [ 3.36869039E+00,  1.64232602E-02, -2.16504097E-05,
                       2.18228562E-08, -8.70185728E-12,  4.28682839E+04,
                       2.18539360E+01]),
                NASA([846.10, 5000.00],
                     [ 2.62345066E+00,  1.38429112E-02, -6.25540907E-06,
                       1.16703412E-09, -7.95359063E-14,  4.32128669E+04,
                       2.66157993E+01])),
        transport=gas_transport(geom='nonlinear',
                                diam=4.443,
                                well_depth=110.7))

species(name=u'C4H8a(86)',
        atoms='H:8 C:4',
        thermo=(NASA([100.00, 952.19],
                     [ 2.79533432E+00,  1.07200908E-02,  6.88764435E-05,
                      -9.52476686E-08,  3.67858925E-11,  1.26165842E+03,
                       1.29513577E+01]),
                NASA([952.19, 5000.00],
                     [ 1.05890862E+01,  1.79900037E-02, -5.60451728E-06,
                       1.02814892E-09, -7.76437827E-14, -2.03636965E+03,
                      -3.37915209E+01])),
        transport=gas_transport(geom='nonlinear',
                                diam=5.509,
                                well_depth=366.039))

species(name=u'C4H6(99)',
        atoms='H:6 C:4',
        thermo=(NASA([100.00, 946.05],
                     [ 2.80594317E+00,  1.02590609E-02,  6.17237648E-05,
                      -9.01611778E-08,  3.59103084E-11,  1.16584993E+04,
                       1.20623208E+01]),
                NASA([946.05, 5000.00],
                     [ 1.24695345E+01,  1.00551088E-02, -2.41190446E-06,
                       4.57038145E-10, -3.93127871E-14,  8.01071120E+03,
                      -4.36383840E+01])),
        transport=gas_transport(geom='nonlinear',
                                diam=5.18,
                                well_depth=357.002,
                                rot_relax=1.0))

species(name=u'X(1)',
        atoms='X:1',
        thermo=(NASA([100.00, 1554.81],
                     [ 7.10134880E-03, -4.25615041E-05,  8.98521156E-08,
                      -7.80182565E-11,  2.32462166E-14, -8.76099414E-01,
                      -3.11209498E-02]),
                NASA([1554.81, 5000.00],
                     [ 1.60301287E-01, -2.52237396E-04,  1.14182282E-07,
                      -1.21473809E-11,  3.85806589E-16, -7.08108147E+01,
                      -9.09535600E-01])))

species(name=u'HX(12)',
        atoms='H:1 X:1',
        thermo=(NASA([100.00, 952.91],
                     [-3.80957846E-01,  5.47219393E-03,  2.60946928E-06,
                      -9.65008412E-09,  4.63967474E-12,  7.31399096E+02,
                       1.01722845E+00]),
                NASA([952.91, 5000.00],
                     [ 2.80337105E+00, -5.41002993E-04,  4.99482316E-07,
                      -7.54902555E-11,  3.06721398E-15, -2.09339490E+02,
                      -1.59435356E+01])))

species(name=u'OX(14)',
        atoms='X:1 O:1',
        thermo=(NASA([100.00, 888.25],
                     [-7.59018036E-01,  1.89869128E-02, -3.82476163E-05,
                       3.43561864E-08, -1.13976013E-11, -1.72389492E+04,
                       1.76019150E+00]),
                NASA([888.25, 5000.00],
                     [ 1.89894867E+00,  2.03293217E-03, -1.19975265E-06,
                       2.32677501E-10, -1.53505623E-14, -1.75145004E+04,
                      -9.64111055E+00])))

species(name=u'CH3X(15)',
        atoms='H:3 C:1 X:1',
        thermo=(NASA([100.00, 848.30],
                     [-1.21090611E+00,  2.92390831E-02, -4.49011672E-05,
                       3.86010689E-08, -1.30361474E-11, -2.31249415E+03,
                       6.80940157E+00]),
                NASA([848.30, 5000.00],
                     [ 1.62291116E+00,  1.12987225E-02, -5.08316650E-06,
                       9.46832954E-10, -6.42885005E-14, -2.62856004E+03,
                      -5.42502394E+00])))

species(name=u'HOX(16)',
        atoms='H:1 O:1 X:1',
        thermo=(NASA([100.00, 914.54],
                     [-1.29521674E+00,  3.36486200E-02, -7.07755341E-05,
                       6.54367721E-08, -2.19434475E-11, -1.93470579E+04,
                       4.37653089E+00]),
                NASA([914.54, 5000.00],
                     [ 2.43538338E+00,  4.64605477E-03, -2.39990873E-06,
                       4.26359701E-10, -2.60614408E-14, -1.94989025E+04,
                      -1.03877722E+01])))

species(name=u'H2OX(17)',
        atoms='H:2 O:1 X:1',
        thermo=(NASA([100.00, 912.85],
                     [-1.34340519E+00,  3.66696015E-02, -7.99482515E-05,
                       7.74127762E-08, -2.68666529E-11, -3.23490303E+04,
                       1.10237802E+01]),
                NASA([912.85, 5000.00],
                     [ 1.12159987E+00,  8.16637387E-03, -4.02356932E-06,
                       7.20418131E-10, -4.51440018E-14, -3.20615278E+04,
                       3.39609648E+00])))

species(name=u'CO2X(20)',
        atoms='X:1 C:1 O:2',
        thermo=(NASA([100.00, 953.58],
                     [ 3.09270665E+00,  5.29257511E-03,  8.99525075E-06,
                      -1.67139901E-08,  7.04956887E-12, -4.52128361E+04,
                      -5.10062523E+00]),
                NASA([953.58, 5000.00],
                     [ 5.99797425E+00,  2.27495290E-03, -6.81151398E-07,
                       1.34446413E-10, -1.11521352E-14, -4.61838021E+04,
                      -2.11646569E+01])))

species(name=u'OCX(22)',
        atoms='X:1 C:1 O:1',
        thermo=(NASA([100.00, 891.32],
                     [-1.38218471E+00,  3.75310911E-02, -8.29779551E-05,
                       8.09731714E-08, -2.85485057E-11, -2.69021441E+04,
                       4.35463035E+00]),
                NASA([891.32, 5000.00],
                     [ 1.38101738E+00,  8.05699435E-03, -4.64297360E-06,
                       8.91142754E-10, -5.90024841E-14, -2.67165159E+04,
                      -4.85379925E+00])))

species(name=u'CX(23)',
        atoms='X:1 C:1',
        thermo=(NASA([100.00, 1401.12],
                     [-6.04857256E-01,  1.10908355E-02, -1.34369676E-05,
                       7.18239043E-09, -1.40685313E-12,  2.14757079E+04,
                       1.48480345E+00]),
                NASA([1401.12, 5000.00],
                     [ 3.08076591E+00, -6.87473269E-04,  5.17593613E-07,
                      -9.73030868E-11,  6.24250814E-15,  2.05662303E+04,
                      -1.70991710E+01])))

species(name=u'CH2X(24)',
        atoms='H:2 C:1 X:1',
        thermo=(NASA([100.00, 1199.84],
                     [-1.02006572E+00,  2.03778530E-02, -2.17291021E-05,
                       1.15868493E-08, -2.38469826E-12,  7.26331892E+03,
                       2.99160375E+00]),
                NASA([1199.84, 5000.00],
                     [ 3.89285623E+00,  3.99892031E-03, -1.25227793E-06,
                       2.09081002E-10, -1.39642186E-14,  6.08439951E+03,
                      -2.16053785E+01])))

species(name=u'CHX(25)',
        atoms='H:1 C:1 X:1',
        thermo=(NASA([100.00, 1596.82],
                     [-9.66375286E-01,  1.63179008E-02, -1.75392291E-05,
                       8.64095972E-09, -1.55501482E-12,  8.06877396E+03,
                       2.54982388E+00]),
                NASA([1596.82, 5000.00],
                     [ 4.21481432E+00,  2.18380791E-04,  5.15663412E-07,
                      -1.20801040E-10,  8.35333025E-15,  6.81195770E+03,
                      -2.36254728E+01])))

species(name=u'HeX(49)',
        atoms='X:1 He:1',
        thermo=(NASA([100.00, 4383.16],
                     [ 2.50000000E+00, -2.38914167E-13,  3.12709494E-16,
                      -1.33367320E-19,  1.74989654E-23,  2.51045171E+03,
                      -1.04087993E+01]),
                NASA([4383.16, 5000.00],
                     [ 2.50003447E+00, -3.04996987E-08,  1.01101187E-11,
                      -1.48796738E-15,  8.20356170E-20,  2.51042057E+03,
                      -1.04090176E+01])))

species(name=u'C2H3X(58)',
        atoms='H:3 C:2 X:1',
        thermo=(NASA([100.00, 928.60],
                     [ 3.83104022E+00, -8.76542826E-03,  6.98017027E-05,
                      -8.68052566E-08,  3.33256145E-11,  5.40801690E+03,
                      -1.81156365E+01]),
                NASA([928.60, 5000.00],
                     [ 8.78015372E+00,  1.92565992E-03,  8.25424482E-07,
                      -1.63654020E-10,  5.70926320E-15,  3.10877888E+03,
                      -4.90566656E+01])))

species(name=u'C2H4X(64)',
        atoms='H:4 C:2 X:1',
        thermo=(NASA([100.00, 940.15],
                     [ 3.88315385E+00, -7.62009644E-03,  6.32690924E-05,
                      -7.52917906E-08,  2.79387134E-11,  1.92361481E+03,
                      -1.23953225E+01]),
                NASA([940.15, 5000.00],
                     [ 6.60946016E+00,  6.91796044E-03, -1.62830580E-06,
                       2.98562998E-10, -2.53033988E-14,  2.55861925E+02,
                      -3.15232178E+01])))

#-------------------------------------------------------------------------------
# Reaction data
#-------------------------------------------------------------------------------
#  Reaction index: Chemkin #1; RMG #23
#  Library reaction: BurkeH2O2inArHe
#  Flux pairs: H2(4), H(8); H2(4), H(8);

# Reaction 1
three_body_reaction('H2(4) + M <=> H(8) + H(8) + M', [4.577000e+19, -1.4, 104.38],
                    efficiencies='CO2(19):3.8 He(2):0.0 H2O(18):12.0 H2(4):2.5 CO(21):1.9',
                    id='gas-1')
#  Reaction index: Chemkin #2; RMG #25
#  Library reaction: BurkeH2O2inArHe
#  Flux pairs: H2(4), H(8); He(2), He(2); He(2), H(8);

# Reaction 2
reaction('He(2) + H2(4) <=> He(2) + H(8) + H(8)', [5.840000e+18, -1.1, 104.38],
         id='gas-2')
#  Reaction index: Chemkin #3; RMG #49
#  Template reaction: R_Recombination
#  Flux pairs: CH3(6), CH4(3); H(8), CH4(3);
#  Matched reaction 57 H + CH3 <=> CH4 in R_Recombination/training
#  This reaction matched rate rule [C_methyl;H_rad]
#  family: R_Recombination

# Reaction 3
reaction('H(8) + CH3(6) <=> CH4(3)', [1.930000e+14, 0.0, 0.27],
         id='gas-3')
#  Reaction index: Chemkin #4; RMG #51
#  Template reaction: R_Recombination
#  Flux pairs: CH3(6), C2H6(5); CH3(6), C2H6(5);
#  Matched reaction 9 CH3 + CH3 <=> C2H6 in R_Recombination/training
#  This reaction matched rate rule [C_methyl;C_methyl]
#  family: R_Recombination

# Reaction 4
reaction('CH3(6) + CH3(6) <=> C2H6(5)', [9.450000e+14, -0.538, 0.135],
         id='gas-4')
#  Reaction index: Chemkin #5; RMG #52
#  Template reaction: R_Recombination
#  Flux pairs: C2H5(9), C2H6(5); H(8), C2H6(5);
#  Matched reaction 58 H + C2H5 <=> C2H6-2 in R_Recombination/training
#  This reaction matched rate rule [C_rad/H2/Cs;H_rad]
#  family: R_Recombination

# Reaction 5
reaction('H(8) + C2H5(9) <=> C2H6(5)', [1.000000e+14, 0.0, 0.0],
         id='gas-5')
#  Reaction index: Chemkin #6; RMG #55
#  Template reaction: R_Recombination
#  Flux pairs: C2H5(9), C3H8(7); CH3(6), C3H8(7);
#  Matched reaction 10 CH3 + C2H5 <=> C3H8 in R_Recombination/training
#  This reaction matched rate rule [C_rad/H2/Cs;C_methyl]
#  family: R_Recombination

# Reaction 6
reaction('CH3(6) + C2H5(9) <=> C3H8(7)', [1.230000e+15, -0.562, 0.021],
         id='gas-6')
#  Reaction index: Chemkin #7; RMG #60
#  Template reaction: R_Addition_MultipleBond
#  Flux pairs: C2H4(11), C2H5(9); H(8), C2H5(9);
#  Matched reaction 2541 H + C2H4 <=> C2H5-2 in R_Addition_MultipleBond/training
#  This reaction matched rate rule [Cds-HH_Cds-HH;HJ]
#  family: R_Addition_MultipleBond

# Reaction 7
reaction('H(8) + C2H4(11) <=> C2H5(9)', [4.620000e+08, 1.64, 1.01],
         id='gas-7')
#  Reaction index: Chemkin #8; RMG #101
#  Template reaction: H_Abstraction
#  Flux pairs: H(8), H2(4); CH4(3), CH3(6);
#  Matched reaction 186 CH4b + H <=> CH3_p1 + H2_p in H_Abstraction/training
#  This reaction matched rate rule [C_methane;H_rad]
#  family: H_Abstraction

# Reaction 8
reaction('H(8) + CH4(3) <=> H2(4) + CH3(6)', [4.100000e+03, 3.156, 8.755],
         id='gas-8')
#  Reaction index: Chemkin #9; RMG #102
#  Template reaction: H_Abstraction
#  Flux pairs: C2H6(5), C2H5(9); CH3(6), CH4(3);
#  Matched reaction 215 C2H6 + CH3_r3 <=> C2H5b + CH4 in H_Abstraction/training
#  This reaction matched rate rule [C_methane;C_rad/H2/Cs\H3]
#  family: H_Abstraction

# Reaction 9
reaction('CH3(6) + C2H6(5) <=> CH4(3) + C2H5(9)', [3.500000e+01, 3.44, 10.384],
         id='gas-9')
#  Reaction index: Chemkin #10; RMG #105
#  Template reaction: Disproportionation
#  Flux pairs: CH3(6), CH4(3); C2H5(9), C2H4(11);
#  Matched reaction 5 CH3 + C2H5 <=> CH4 + C2H4 in Disproportionation/training
#  This reaction matched rate rule [C_methyl;Cmethyl_Csrad]
#  family: Disproportionation

# Reaction 10
reaction('CH3(6) + C2H5(9) <=> CH4(3) + C2H4(11)', [6.570000e+14, -0.68, 0.0],
         id='gas-10')
#  Reaction index: Chemkin #11; RMG #106
#  Template reaction: H_Abstraction
#  Flux pairs: C2H6(5), C2H5(9); H(8), H2(4);
#  Matched reaction 210 C2H6 + H <=> C2H5b + H2_p in H_Abstraction/training
#  This reaction matched rate rule [H2;C_rad/H2/Cs\H3]
#  family: H_Abstraction

# Reaction 11
reaction('H(8) + C2H6(5) <=> H2(4) + C2H5(9)', [1.150000e+08, 1.9, 7.53],
         id='gas-11')
#  Reaction index: Chemkin #12; RMG #109
#  Template reaction: Disproportionation
#  Flux pairs: H(8), H2(4); C2H5(9), C2H4(11);
#  Matched reaction 4 H + C2H5 <=> H2 + C2H4 in Disproportionation/training
#  This reaction matched rate rule [H_rad;Cmethyl_Csrad]
#  family: Disproportionation

# Reaction 12
reaction('H(8) + C2H5(9) <=> H2(4) + C2H4(11)', [1.083000e+13, 0.0, 0.0],
         id='gas-12')
#  Reaction index: Chemkin #13; RMG #112
#  Template reaction: Disproportionation
#  Flux pairs: C2H5(9), C2H6(5); C2H5(9), C2H4(11);
#  Matched reaction 6 C2H5 + C2H5-2 <=> C2H6 + C2H4 in Disproportionation/training
#  This reaction matched rate rule [C_rad/H2/Cs;Cmethyl_Csrad]
#  family: Disproportionation

# Reaction 13
reaction('C2H5(9) + C2H5(9) <=> C2H6(5) + C2H4(11)', [6.900000e+13, -0.35, 0.0],
         id='gas-13')
#  Reaction index: Chemkin #14; RMG #78
#  Template reaction: Singlet_Carbene_Intra_Disproportionation
#  Flux pairs: C2H4(48), C2H4(11);
#  Estimated using template [CsJ2-C;singletcarbene;CH] for rate rule [CsJ2-C;CsJ2H;CH3]
#  Euclidian distance = 1.41421356237
#  Multiplied by reaction path degeneracy 3.0
#  family: Singlet_Carbene_Intra_Disproportionation

# Reaction 14
reaction('C2H4(48) <=> C2H4(11)', [1.843941e+15, -1.078, 13.587],
         id='gas-14')
#  Reaction index: Chemkin #15; RMG #194
#  Template reaction: 1+2_Cycloaddition
#  Flux pairs: C2H4(48), C4H8a(86); C2H4(11), C4H8a(86);
#  Estimated using template [elec_def;mb_db_unsub] for rate rule [me_carbene;mb_db_unsub]
#  Euclidian distance = 1.0
#  family: 1+2_Cycloaddition

# Reaction 15
reaction('C2H4(11) + C2H4(48) <=> C4H8a(86)', [1.177285e+12, 0.0, 2.645],
         id='gas-15')
#  Reaction index: Chemkin #1; RMG #100
#  Template reaction: Surface_Adsorption_vdW
#  Flux pairs: X(1), C2H4X(64); C2H4(11), C2H4X(64);
#  Exact match found for rate rule [Adsorbate;VacantSite]
#  Euclidian distance = 0
#  family: Surface_Adsorption_vdW

# surface1 Reaction 1
surface_reaction('X(1) + C2H4(11) <=> C2H4X(64)', stick(1.000000e-01, 0.0, 0.0),
                 id='surface1-1')
#  Reaction index: Chemkin #2; RMG #79
#  Template reaction: Surface_Adsorption_vdW
#  Flux pairs: X(1), HeX(49); He(2), HeX(49);
#  Exact match found for rate rule [Adsorbate;VacantSite]
#  Euclidian distance = 0
#  family: Surface_Adsorption_vdW
#  Ea raised from 0.0 to 27.1 kJ/mol to match endothermicity of reaction.

# surface1 Reaction 2
surface_reaction('X(1) + He(2) <=> HeX(49)', stick(1.000000e-01, 0.0, 6.471),
                 id='surface1-2')
#  Reaction index: Chemkin #3; RMG #1
#  Library reaction: Surface/CPOX_Pt/Deutschmann2006
#  Flux pairs: H2(4), HX(12); X(1), HX(12); X(1), HX(12);

# surface1 Reaction 3
surface_reaction('X(1) + X(1) + H2(4) <=> HX(12) + HX(12)', stick(4.600000e-02, 0.0, 0.0),
                 id='surface1-3')
#  Reaction index: Chemkin #4; RMG #90
#  Template reaction: Surface_Adsorption_Single
#  Flux pairs: X(1), HX(12); H(8), HX(12);
#  Exact match found for rate rule [Adsorbate;VacantSite]
#  Euclidian distance = 0
#  family: Surface_Adsorption_Single

# surface1 Reaction 4
surface_reaction('X(1) + H(8) <=> HX(12)', stick(1.000000e-01, 0.0, 0.0),
                 id='surface1-4')
#  Reaction index: Chemkin #5; RMG #99
#  Template reaction: Surface_Adsorption_Dissociative
#  Flux pairs: C2H4(11), C2H3X(58); C2H4(11), HX(12);
#  Exact match found for rate rule [Adsorbate;VacantSite1;VacantSite2]
#  Euclidian distance = 0
#  Multiplied by reaction path degeneracy 4.0
#  family: Surface_Adsorption_Dissociative

# surface1 Reaction 5
surface_reaction('X(1) + X(1) + C2H4(11) <=> C2H3X(58) + HX(12)', stick(4.000000e-02, 0.0, 10.0),
                 id='surface1-5')
#  Reaction index: Chemkin #6; RMG #228
#  Template reaction: Surface_Adsorption_Dissociative
#  Flux pairs: C4H6(99), C2H3X(58); C4H6(99), C2H3X(58);
#  Exact match found for rate rule [Adsorbate;VacantSite1;VacantSite2]
#  Euclidian distance = 0