units(length='cm', time='s', quantity='mol', act_energy='kcal/mol')

ideal_gas(name='gas',
          elements="H D T C Ci O Oi N Ne Ar He Si S Cl X",
          species="""n-heptane   Ar          He          Ne
                     N2          C2H4(2)     C4H8-1(3)   C4H8-2(4)
                     C4H6(7)     C2H6(96)    C4H10(101)  C3H8(102)
                     C6H12(109)  C8H14(115)  C6H14(116)  C8H18(117)
                     C6H10(147)  C8H12(153)  C8H16(154)  C6H12(194)
                     C4H8(248)   C6H12(256)  C6H14(279)  C6H14(306)
                     S(1166)     S(1167)     CH4(1469)   S(1890)""",
          reactions='gas-*',
          initial_state=state(temperature=300.0, pressure=OneAtm))

ideal_interface(name='surface1',
                elements="H D T C Ci O Oi N Ne Ar He Si S Cl X",
                species="""X(1)        HX(5)       C2H3X(27)   CH3X(29)
                          C2H5X(30)   C4H7X(31)   C4H7X(32)   C4H7X(33)
                          C4H7X(34)   C4H9X(44)   C4H9X(45)   C2H2X(49)
                          C6H11X(51)  C6H11X(52)  C4H5X(56)   C4H5X(57)
                          C6H9X(81)   CH2X(91)    C2H4X(92)   C6H13X(93)
                          C6H13X(94)  C6H13X(95)  SX(105)     SX(129)
                          SX(184)     C4H7X(204)  SX(205)     C4H6X(243)
                          SX(244)     C4H9X(267)  SX(270)     SX(276)
                          C4H9X(291)  SX(294)     SX(303)     SX(323)
                          SX(325)     SX(584)     SX(585)     SX(593)
                          SX(594)     SX(637)     SX(640)     SX(642)
                          SX(643)     SX(644)     SX(675)     SX(676)
                          SX(709)     SX(743)     SX(884)     SX(1002)
                          CHX(1506)   SX(1558)    SX(1622)    SX(1950)
                          SX(2795)    SX(2796)    SX(2940)    SX(3023)""",
                site_density=2.72e-09,
                phases="gas",
          reactions='surface1-*',
                initial_state=state(temperature=300.0, pressure=OneAtm))

#-------------------------------------------------------------------------------
# Element data
#-------------------------------------------------------------------------------

element(symbol=u'X', atomic_mass=195.083)
element(symbol=u'Ci', atomic_mass=13.003)
element(symbol=u'D', atomic_mass=2.014)
element(symbol=u'Oi', atomic_mass=18.0)
element(symbol=u'T', atomic_mass=3.016)
#-------------------------------------------------------------------------------
# Species data
#-------------------------------------------------------------------------------

species(name=u'n-heptane',
        atoms='H:16 C:7',
        thermo=(NASA([100.00, 1262.73],
                     [-2.91681405E-03,  7.69373649E-02, -3.48025563E-05,
                       1.86095180E-09,  2.01573617E-12, -2.57829342E+04,
                       3.00312148E+01]),
                NASA([1262.73, 5000.00],
                     [ 1.38377915E+01,  4.85945016E-02, -1.95474548E-05,
                       3.52837178E-09, -2.39064676E-13, -3.05141556E+04,
                      -4.48642836E+01])))

species(name=u'Ar',
        atoms='Ar:1',
        thermo=(NASA([200.00, 1000.00],
                     [ 2.50000000E+00,  0.00000000E+00,  0.00000000E+00,
                       0.00000000E+00,  0.00000000E+00, -7.45375000E+02,
                       4.37967000E+00]),
                NASA([1000.00, 6000.00],
                     [ 2.50000000E+00,  0.00000000E+00,  0.00000000E+00,
                       0.00000000E+00,  0.00000000E+00, -7.45375000E+02,
                       4.37967000E+00])))

species(name=u'He',
        atoms='He:1',
        thermo=(NASA([200.00, 1000.00],
                     [ 2.50000000E+00,  0.00000000E+00,  0.00000000E+00,
                       0.00000000E+00,  0.00000000E+00, -7.45375000E+02,
                       9.28724000E-01]),
                NASA([1000.00, 6000.00],
                     [ 2.50000000E+00,  0.00000000E+00,  0.00000000E+00,
                       0.00000000E+00,  0.00000000E+00, -7.45375000E+02,
                       9.28724000E-01])))

species(name=u'Ne',
        atoms='Ne:1',
        thermo=(NASA([200.00, 1000.00],
                     [ 2.50000000E+00,  0.00000000E+00,  0.00000000E+00,
                       0.00000000E+00,  0.00000000E+00, -7.45375000E+02,
                       3.35532000E+00]),
                NASA([1000.00, 6000.00],
                     [ 2.50000000E+00,  0.00000000E+00,  0.00000000E+00,
                       0.00000000E+00,  0.00000000E+00, -7.45375000E+02,
                       3.35532000E+00])))

species(name=u'N2',
        atoms='N:2',
        thermo=(NASA([200.00, 1000.00],
                     [ 3.53101000E+00, -1.23661000E-04, -5.02999000E-07,
                       2.43531000E-09, -1.40881000E-12, -1.04698000E+03,
                       2.96747000E+00]),
                NASA([1000.00, 6000.00],
                     [ 2.95258000E+00,  1.39690000E-03, -4.92632000E-07,
                       7.86010000E-11, -4.60755000E-15, -9.23949000E+02,
                       5.87189000E+00])))

species(name=u'C2H4(2)',
        atoms='H:4 C:2',
        thermo=(NASA([100.00, 979.36],
                     [ 3.97471606E+00, -4.75844285E-03,  4.16783770E-05,
                      -4.51392516E-08,  1.54224761E-11,  4.91540746E+03,
                       3.62430844E+00]),
                NASA([979.36, 5000.00],
                     [ 3.55660610E+00,  1.10627464E-02, -4.17019079E-06,
                       7.85586770E-10, -5.70060829E-14,  4.32046489E+03,
                       2.17719479E+00])))

species(name=u'C4H8-1(3)',
        atoms='H:8 C:4',
        thermo=(NASA([100.00, 1007.28],
                     [ 2.58772906E+00,  2.32777969E-02,  1.93412349E-05,
                      -3.55496333E-08,  1.36906009E-11, -1.91872926E+03,
                       1.45750618E+01]),
                NASA([1007.28, 5000.00],
                     [ 7.20517168E+00,  2.36361568E-02, -9.03150028E-06,
                       1.65392666E-09, -1.16019260E-13, -3.79733937E+03,
                      -1.24426257E+01])))

species(name=u'C4H8-2(4)',
        atoms='H:8 C:4',
        thermo=(NASA([100.00, 1157.79],
                     [ 2.51998327E+00,  2.76812799E-02,  9.43783469E-07,
                      -1.25009101E-08,  4.67144666E-12, -3.34374767E+03,
                       1.30195623E+01]),
                NASA([1157.79, 5000.00],
                     [ 6.04225708E+00,  2.60072350E-02, -1.04843374E-05,
                       1.90880922E-09, -1.30600505E-13, -4.86276511E+03,
                      -7.52715109E+00])))

species(name=u'C4H6(7)',
        atoms='H:6 C:4',
        thermo=(NASA([100.00, 946.05],
                     [ 2.80599310E+00,  1.02584471E-02,  6.17260255E-05,
                      -9.01642687E-08,  3.59116961E-11,  1.16584972E+04,
                       1.20621434E+01]),
                NASA([946.05, 5000.00],
                     [ 1.24693720E+01,  1.00553901E-02, -2.41206872E-06,
                       4.57077303E-10, -3.93160571E-14,  8.01077795E+03,
                      -4.36374720E+01])))

species(name=u'C2H6(96)',
        atoms='H:6 C:2',
        thermo=(NASA([100.00, 1012.42],
                     [ 3.72239291E+00,  1.65083841E-03,  3.44175530E-05,
                      -3.76858229E-08,  1.24450657E-11, -1.15575901E+04,
                       4.68247999E+00]),
                NASA([1012.42, 5000.00],
                     [ 2.82848257E+00,  1.73040568E-02, -6.73334245E-06,
                       1.23742024E-09, -8.65676410E-14, -1.19978080E+04,
                       5.93811707E+00])))

species(name=u'C4H10(101)',
        atoms='H:10 C:4',
        thermo=(NASA([100.00, 1147.60],
                     [ 2.16918413E+00,  3.43904632E-02, -1.61564236E-06,
                      -1.30726562E-08,  5.17350451E-12, -1.72505136E+04,
                       1.46546701E+01]),
                NASA([1147.60, 5000.00],
                     [ 6.78903089E+00,  3.03598162E-02, -1.21262050E-05,
                       2.19945025E-09, -1.50289312E-13, -1.91057969E+04,
                      -1.17329103E+01])))

species(name=u'C3H8(102)',
        atoms='H:8 C:3',
        thermo=(NASA([100.00, 989.99],
                     [ 3.06336167E+00,  1.29214561E-02,  3.47032808E-05,
                      -4.70946154E-08,  1.71384141E-11, -1.43905789E+04,
                       1.07835592E+01]),
                NASA([989.99, 5000.00],
                     [ 5.60440043E+00,  2.19528785E-02, -8.22080610E-06,
                       1.50103993E-09, -1.05635358E-13, -1.58394038E+04,
                      -6.22623300E+00])))

species(name=u'C6H12(109)',
        atoms='H:12 C:6',
        thermo=(NASA([100.00, 2065.44],
                     [ 1.68598658E+00,  5.58664307E-02, -2.53057821E-05,
                       3.98016615E-09, -6.94904807E-14, -7.81739466E+03,
                       2.09919882E+01]),
                NASA([2065.44, 5000.00],
                     [ 2.13486140E+01,  2.79136045E-02, -1.23596487E-05,
                       2.17527434E-09, -1.38347372E-13, -1.80997789E+04,
                      -9.33598720E+01])))

species(name=u'C8H14(115)',
        atoms='H:14 C:8',
        thermo=(NASA([100.00, 1031.59],
                     [-3.24308169E-01,  8.09803459E-02, -3.24425386E-05,
                      -1.31536671E-08,  1.01843255E-11, -1.50090156E+03,
                       3.15196958E+01]),
                NASA([1031.59, 5000.00],
                     [ 1.73697073E+01,  4.09232311E-02, -1.57129317E-05,
                       2.86474556E-09, -1.99759457E-13, -6.67068809E+03,
                      -6.17573781E+01])))

species(name=u'C6H14(116)',
        atoms='H:14 C:6',
        thermo=(NASA([100.00, 1048.16],
                     [ 8.83603407E-01,  5.70449582E-02, -2.15511769E-06,
                      -2.85512365E-08,  1.26618641E-11, -2.27982664E+04,
                       2.50352381E+01]),
                NASA([1048.16, 5000.00],
                     [ 1.11354266E+01,  4.25244017E-02, -1.65829595E-05,
                       3.01864905E-09, -2.09013581E-13, -2.62988561E+04,
                      -3.13529752E+01])))

species(name=u'C8H18(117)',
        atoms='H:18 C:8',
        thermo=(NASA([100.00, 1950.39],
                     [-8.85253472E-01,  9.40525134E-02, -5.49401942E-05,
                       1.58319910E-08, -1.84186830E-12, -2.86089074E+04,
                       3.54764932E+01]),
                NASA([1950.39, 5000.00],
                     [ 2.30699897E+01,  4.49237816E-02, -1.71567286E-05,
                       2.91725571E-09, -1.86477663E-13, -3.79533974E+04,
                      -9.60967099E+01])))

species(name=u'C6H10(147)',
        atoms='H:10 C:6',
        thermo=(NASA([100.00, 1036.89],
                     [ 1.50874221E+00,  4.27939676E-02,  1.00407781E-05,
                      -3.76644958E-08,  1.56320088E-11,  7.74480595E+03,
                       2.33493905E+01]),
                NASA([1036.89, 5000.00],
                     [ 1.16601041E+01,  3.10397815E-02, -1.26024374E-05,
                       2.38495409E-09, -1.70150727E-13,  4.16633351E+03,
                      -3.30972272E+01])))

species(name=u'C8H12(153)',
        atoms='H:12 C:8',
        thermo=(NASA([100.00, 1002.94],
                     [ 1.69489980E-02,  7.28189377E-02, -2.16585698E-05,
                      -2.40807783E-08,  1.44597041E-11,  1.38562447E+04,
                       3.07679077E+01]),
                NASA([1002.94, 5000.00],
                     [ 1.77276883E+01,  3.45993801E-02, -1.29781828E-05,
                       2.37500136E-09, -1.67643536E-13,  8.67334638E+03,
                      -6.28559377E+01])))

species(name=u'C8H16(154)',
        atoms='H:16 C:8',
        thermo=(NASA([100.00, 1248.81],
                     [-4.26647485E-01,  8.49512374E-02, -4.26977778E-05,
                       5.19306335E-09,  1.55005691E-12, -1.32580173E+04,
                       3.49638273E+01]),
                NASA([1248.81, 5000.00],
                     [ 1.57326579E+01,  4.96311262E-02, -2.00187569E-05,
                       3.62701466E-09, -2.46632049E-13, -1.85758476E+04,
                      -5.17182159E+01])))

species(name=u'C6H12(194)',
        atoms='H:12 C:6',
        thermo=(NASA([100.00, 1018.92],
                     [ 1.21827324E+00,  4.88303598E-02,  8.49335826E-06,
                      -3.91899735E-08,  1.67107196E-11, -8.55522126E+03,
                       2.43074946E+01]),
                NASA([1018.92, 5000.00],
                     [ 1.16698119E+01,  3.59250755E-02, -1.39120664E-05,
                       2.55991991E-09, -1.79822160E-13, -1.21450086E+04,
                      -3.34751762E+01])))

species(name=u'C4H8(248)',
        atoms='H:8 C:4',
        thermo=(NASA([100.00, 1061.33],
                     [ 2.52504770E+00,  2.64752782E-02,  7.08359238E-06,
                      -2.07731462E-08,  8.00430055E-12, -4.02607130E+03,
                       1.28857274E+01]),
                NASA([1061.33, 5000.00],
                     [ 6.48672669E+00,  2.49943921E-02, -9.83283171E-06,
                       1.79343299E-09, -1.24008235E-13, -5.62452310E+03,
                      -1.00316397E+01])))

species(name=u'C6H12(256)',
        atoms='H:12 C:6',
        thermo=(NASA([100.00, 3144.72],
                     [ 1.62486600E+00,  5.81706891E-02, -2.94074668E-05,
                       6.41453677E-09, -5.27511383E-13, -9.95070725E+03,
                       2.05730324E+01]),
                NASA([3144.72, 5000.00],
                     [ 2.63049846E+01,  2.09689465E-02, -8.89163385E-06,
                       1.47783715E-09, -8.83519412E-14, -2.26006402E+04,
                      -1.22203751E+02])))

species(name=u'C6H14(279)',
        atoms='H:14 C:6',
        thermo=(NASA([100.00, 1237.11],
                     [ 9.36204265E-01,  5.80630250E-02, -1.05197660E-05,
                      -1.36320323E-08,  5.73438090E-12, -2.34249411E+04,
                       2.40002576E+01]),
                NASA([1237.11, 5000.00],
                     [ 1.03159905E+01,  4.66440696E-02, -1.96015321E-05,
                       3.61730433E-09, -2.48224262E-13, -2.71926741E+04,
                      -2.90957696E+01])))

species(name=u'C6H14(306)',
        atoms='H:14 C:6',
        thermo=(NASA([100.00, 1002.79],
                     [ 9.62511884E-01,  5.35099673E-02,  1.32037900E-05,
                      -4.70268617E-08,  1.98557427E-11, -2.36936864E+04,
                       2.41377511E+01]),
                NASA([1002.79, 5000.00],
                     [ 1.14867705E+01,  4.22488291E-02, -1.59010927E-05,
                       2.87000033E-09, -1.99356317E-13, -2.73489440E+04,
                      -3.43661848E+01])))

species(name=u'S(1166)',
        atoms='H:26 C:12',
        thermo=(NASA([100.00, 1616.40],
                     [-2.93639819E+00,  1.47714273E-01, -9.44129495E-05,
                       3.09701620E-08, -4.24598076E-12, -3.99843523E+04,
                       5.10628678E+01]),
                NASA([1616.40, 5000.00],
                     [ 2.31870742E+01,  8.30677375E-02, -3.44212905E-05,
                       6.22706991E-09, -4.19069960E-13, -4.84294862E+04,
                      -8.75121224E+01])))

species(name=u'S(1167)',
        atoms='H:12 C:6',
        thermo=(NASA([100.00, 1829.14],
                     [ 7.23497206E-01,  6.40962986E-02, -3.88937857E-05,
                       1.18285810E-08, -1.46479639E-12, -9.55473307E+03,
                       2.34752956E+01]),
                NASA([1829.14, 5000.00],
                     [ 1.55815550E+01,  3.16049972E-02, -1.22495396E-05,
                       2.11773097E-09, -1.37578189E-13, -1.49903266E+04,
                      -5.71784952E+01])))

species(name=u'CH4(1469)',
        atoms='H:4 C:1',
        thermo=(NASA([100.00, 1084.12],
                     [ 4.20541524E+00, -5.35557362E-03,  2.51123265E-05,
                      -2.13762843E-08,  5.97523937E-12, -1.01619433E+04,
                      -9.21279283E-01]),
                NASA([1084.12, 5000.00],
                     [ 9.08265721E-01,  1.14540858E-02, -4.57173828E-06,
                       8.29191671E-10, -5.66314895E-14, -9.71997444E+03,
                       1.39930944E+01])))

species(name=u'S(1890)',
        atoms='H:12 C:6',
        thermo=(NASA([100.00, 1698.33],
                     [ 1.59095742E+00,  5.26758494E-02, -1.83561979E-05,
                      -1.06676417E-09,  1.11255271E-12, -1.06220126E+04,
                       2.16531738E+01]),
                NASA([1698.33, 5000.00],
                     [ 1.44977568E+01,  3.62929517E-02, -1.62656052E-05,
                       2.97191363E-09, -1.97262818E-13, -1.70273370E+04,
                      -5.34016107E+01])))

species(name=u'X(1)',
        atoms='X:1',
        thermo=(NASA([100.00, 1554.80],
                     [ 7.10139498E-03, -4.25619522E-05,  8.98533016E-08,
                      -7.80193649E-11,  2.32465471E-14, -8.76101712E-01,
                      -3.11211229E-02]),
                NASA([1554.80, 5000.00],
                     [ 1.60299900E-01, -2.52235409E-04,  1.14181275E-07,
                      -1.21471653E-11,  3.85790025E-16, -7.08100885E+01,
                      -9.09527530E-01])))

species(name=u'HX(5)',
        atoms='H:1 X:1',
        thermo=(NASA([100.00, 952.91],
                     [-3.80965452E-01,  5.47228709E-03,  2.60912778E-06,
                      -9.64961980E-09,  4.63946753E-12, -9.42254356E+03,
                       1.01725550E+00]),
                NASA([952.91, 5000.00],
                     [ 2.80339655E+00, -5.41047017E-04,  4.99507978E-07,
                      -7.54963647E-11,  3.06772366E-15, -1.03632930E+04,
                      -1.59436787E+01])))

species(name=u'C2H3X(27)',
        atoms='H:3 C:2 X:1',
        thermo=(NASA([100.00, 928.62],
                     [ 3.83091018E+00, -8.76381562E-03,  6.97956896E-05,
                      -8.67969174E-08,  3.33218121E-11,  1.60029382E+03,
                      -1.81151753E+01]),
                NASA([928.62, 5000.00],
                     [ 8.78054562E+00,  1.92497720E-03,  8.25825014E-07,
                      -1.63749818E-10,  5.71728318E-15, -6.99109301E+02,
                      -4.90588618E+01])))

species(name=u'CH3X(29)',
        atoms='H:3 C:1 X:1',
        thermo=(NASA([100.00, 848.30],
                     [-1.21090496E+00,  2.92390681E-02, -4.49011079E-05,
                       3.86009808E-08, -1.30361041E-11, -6.12022281E+03,
                       6.80939750E+00]),
                NASA([848.30, 5000.00],
                     [ 1.62290877E+00,  1.12987268E-02, -5.08316908E-06,
                       9.46833581E-10, -6.42885536E-14, -6.43628772E+03,
                      -5.42501059E+00])))

species(name=u'C2H5X(30)',
        atoms='H:5 C:2 X:1',
        thermo=(NASA([100.00, 803.81],
                     [-1.64625424E+00,  3.89626488E-02, -4.31128887E-05,
                       2.97076939E-08, -8.80222915E-12, -1.01038978E+04,
                       9.27323637E+00]),
                NASA([803.81, 5000.00],
                     [ 1.97598112E+00,  2.09382766E-02, -9.47916922E-06,
                       1.81392948E-09, -1.27206354E-13, -1.06862466E+04,
                      -7.41107956E+00])))

species(name=u'C4H7X(31)',
        atoms='H:7 C:4 X:1',
        thermo=(NASA([100.00, 971.02],
                     [ 2.64365035E+00,  1.79007589E-02,  4.24443189E-05,
                      -6.44028479E-08,  2.49593993E-11, -5.89825374E+03,
                      -6.69991651E+00]),
                NASA([971.02, 5000.00],
                     [ 9.25871667E+00,  2.04064152E-02, -7.39143670E-06,
                       1.37021231E-09, -9.94133357E-14, -8.58573787E+03,
                      -4.56426102E+01])))

species(name=u'C4H7X(32)',
        atoms='H:7 C:4 X:1',
        thermo=(NASA([100.00, 986.67],
                     [ 2.45798205E+00,  2.47217336E-02,  2.01285964E-05,
                      -4.02735564E-08,  1.62485845E-11,  2.50393331E+03,
                      -5.12991781E+00]),
                NASA([986.67, 5000.00],
                     [ 8.87898065E+00,  2.09043993E-02, -7.83851223E-06,
                       1.44076477E-09, -1.02346878E-13,  1.55577199E+02,
                      -4.15007572E+01])))

species(name=u'C4H7X(33)',
        atoms='H:7 C:4 X:1',
        thermo=(NASA([100.00, 965.06],
                     [ 2.56877619E+00,  1.97500674E-02,  3.72961301E-05,
                      -6.04017092E-08,  2.39989018E-11, -6.16967460E+03,
                      -8.56564322E+00]),
                NASA([965.06, 5000.00],
                     [ 9.89778724E+00,  1.86142959E-02, -6.38884453E-06,
                       1.17309353E-09, -8.55406646E-14, -8.94596581E+03,
                      -5.07182348E+01])))

species(name=u'C4H7X(34)',
        atoms='H:7 C:4 X:1',
        thermo=(NASA([100.00, 949.35],
                     [ 2.54254539E+00,  1.77389010E-02,  4.93877612E-05,
                      -7.72878178E-08,  3.10660019E-11, -4.94404130E+03,
                      -8.46783968E+00]),
                NASA([949.35, 5000.00],
                     [ 1.15220223E+01,  1.60005944E-02, -4.89823595E-06,
                       8.83972924E-10, -6.63710570E-14, -8.27557364E+03,
                      -5.98888028E+01])))

species(name=u'C4H9X(44)',
        atoms='H:9 C:4 X:1',
        thermo=(NASA([100.00, 1009.34],
                     [ 2.45382734E+00,  2.40994657E-02,  3.11010256E-05,
                      -4.95699577E-08,  1.85293661E-11, -1.42420280E+04,
                      -3.52847415E+00]),
                NASA([1009.34, 5000.00],
                     [ 7.52084135E+00,  2.82413531E-02, -1.10515535E-05,
                       2.04772333E-09, -1.44617914E-13, -1.64987495E+04,
                      -3.41331625E+01])))

species(name=u'C4H9X(45)',
        atoms='H:9 C:4 X:1',
        thermo=(NASA([100.00, 993.09],
                     [ 2.22649262E+00,  2.86530428E-02,  2.37814781E-05,
                      -4.60601877E-08,  1.82913065E-11, -1.29590132E+04,
                      -3.55141667E+00]),
                NASA([993.09, 5000.00],
                     [ 9.09063018E+00,  2.59568873E-02, -9.83403420E-06,
                       1.80637207E-09, -1.27731480E-13, -1.55527346E+04,
                      -4.28140480E+01])))

species(name=u'C2H2X(49)',
        atoms='H:2 C:2 X:1',
        thermo=(NASA([100.00, 1146.89],
                     [-1.35665997E+00,  2.85338019E-02, -3.11240758E-05,
                       1.70134067E-08, -3.63322671E-12, -2.34791952E+03,
                       3.79543665E+00]),
                NASA([1146.89, 5000.00],
                     [ 4.86807469E+00,  6.82428196E-03, -2.73110334E-06,
                       5.09415334E-10, -3.57467832E-14, -3.77576580E+03,
                      -2.70885611E+01])))

species(name=u'C6H11X(51)',
        atoms='H:11 C:6 X:1',
        thermo=(NASA([100.00, 968.49],
                     [ 1.21380653E+00,  4.74385684E-02,  1.70473783E-05,
                      -5.31710482E-08,  2.32909786E-11, -4.50373852E+03,
                       5.18267936E+00]),
                NASA([968.49, 5000.00],
                     [ 1.29066493E+01,  3.25069116E-02, -1.14963418E-05,
                       2.04429996E-09, -1.42970869E-13, -8.33323557E+03,
                      -5.89317378E+01])))

species(name=u'C6H11X(52)',
        atoms='H:11 C:6 X:1',
        thermo=(NASA([100.00, 1026.60],
                     [ 1.36763236E+00,  4.47159424E-02,  1.77339332E-05,
                      -4.72504607E-08,  1.90469768E-11, -5.77795299E+03,
                       5.40777780E+00]),
                NASA([1026.60, 5000.00],
                     [ 1.14239279E+01,  3.61439866E-02, -1.44679608E-05,
                       2.70636835E-09, -1.91760853E-13, -9.45576922E+03,
                      -5.12283432E+01])))

species(name=u'C4H5X(56)',
        atoms='H:5 C:4 X:1',
        thermo=(NASA([100.00, 936.52],
                     [ 2.68471723E+00,  1.36244496E-02,  5.32591849E-05,
                      -8.32912448E-08,  3.41499374E-11,  3.69352401E+03,
                      -1.06510487E+01]),
                NASA([936.52, 5000.00],
                     [ 1.29012266E+01,  8.96921861E-03, -1.71920076E-06,
                       2.89744517E-10, -2.58686364E-14,  7.04850646E+01,
                      -6.83963397E+01])))

species(name=u'C4H5X(57)',
        atoms='H:5 C:4 X:1',
        thermo=(NASA([100.00, 928.63],
                     [ 2.64232495E+00,  8.31109593E-03,  8.12146261E-05,
                      -1.21398701E-07,  4.98630759E-11,  8.87643276E+03,
                      -1.03932963E+01]),
                NASA([928.63, 5000.00],
                     [ 1.69490474E+01,  2.00818812E-03,  2.03468841E-06,
                      -4.02657023E-10,  1.85400094E-14,  3.83393839E+03,
                      -9.11990785E+01])))

species(name=u'C6H9X(81)',
        atoms='H:9 C:6 X:1',
        thermo=(NASA([100.00, 995.64],
                     [ 1.00158150E+00,  5.37831764E-02, -1.05077719E-05,
                      -2.52898569E-08,  1.36194364E-11,  1.03782995E+04,
                       4.73928304E+00]),
                NASA([995.64, 5000.00],
                     [ 1.48279675E+01,  2.56881420E-02, -9.53965888E-06,
                       1.75504791E-09, -1.24935257E-13,  6.26437453E+03,
                      -6.87379050E+01])))

species(name=u'CH2X(91)',
        atoms='H:2 C:1 X:1',
        thermo=(NASA([100.00, 1199.82],
                     [-1.02006594E+00,  2.03778552E-02, -2.17291076E-05,
                       1.15868543E-08, -2.38469979E-12, -3.52138299E+02,
                       2.99160459E+00]),
                NASA([1199.82, 5000.00],
                     [ 3.89285483E+00,  3.99892281E-03, -1.25227942E-06,
                       2.09081361E-10, -1.39642489E-14, -1.53105717E+03,
                      -2.16053707E+01])))

species(name=u'C2H4X(92)',
        atoms='H:4 C:2 X:1',
        thermo=(NASA([100.00, 922.92],
                     [-1.51744559E+00,  3.54364794E-02, -3.81057246E-05,
                       2.35708696E-08, -6.09814448E-12, -5.46060436E+03,
                       5.77183816E+00]),
                NASA([922.92, 5000.00],
                     [ 2.83446173E+00,  1.65755797E-02, -7.45248059E-06,
                       1.42932264E-09, -1.00637720E-13, -6.26392118E+03,
                      -1.48746526E+01])))

species(name=u'C6H13X(93)',
        atoms='H:13 C:6 X:1',
        thermo=(NASA([100.00, 1130.02],
                     [ 1.07508654E+00,  5.48320242E-02, -5.85499030E-06,
                      -1.87602461E-08,  7.94175434E-12, -2.00357088E+04,
                       6.68454494E+00]),
                NASA([1130.02, 5000.00],
                     [ 9.23587213E+00,  4.49494152E-02, -1.79636149E-05,
                       3.26621012E-09, -2.23874450E-13, -2.30934727E+04,
                      -3.90529659E+01])))

species(name=u'C6H13X(94)',
        atoms='H:13 C:6 X:1',
        thermo=(NASA([100.00, 1104.49],
                     [ 9.11736944E-01,  5.71186337E-02, -4.42064989E-06,
                      -2.31827364E-08,  9.89591048E-12, -1.93733063E+04,
                       4.93075254E+00]),
                NASA([1104.49, 5000.00],
                     [ 1.03931710E+01,  4.50091930E-02, -1.81629728E-05,
                       3.33345850E-09, -2.30373441E-13, -2.28235554E+04,
                      -4.78917391E+01])))

species(name=u'C6H13X(95)',
        atoms='H:13 C:6 X:1',
        thermo=(NASA([100.00, 1210.11],
                     [ 1.10826561E+00,  5.37308809E-02, -6.37927534E-07,
                      -2.23970084E-08,  8.32635868E-12, -2.06491586E+04,
                       5.70647071E+00]),
                NASA([1210.11, 5000.00],
                     [ 9.93913033E+00,  4.70609403E-02, -2.02853103E-05,
                       3.80581060E-09, -2.64092883E-13, -2.44353295E+04,
                      -4.53945281E+01])))

species(name=u'SX(105)',
        atoms='H:13 C:6 X:1',
        thermo=(NASA([100.00, 1018.67],
                     [ 8.91751248E-01,  5.48140128E-02,  7.99760365E-06,
                      -4.21289090E-08,  1.81075999E-11, -1.87276472E+04,
                       6.55849864E+00]),
                NASA([1018.67, 5000.00],
                     [ 1.25016332E+01,  3.99739883E-02, -1.54271792E-05,
                       2.83248865E-09, -1.98681535E-13, -2.26883499E+04,
                      -5.74978715E+01])))

species(name=u'SX(129)',
        atoms='H:13 C:6 X:1',
        thermo=(NASA([100.00, 1070.94],
                     [ 1.05705233E+00,  5.42066756E-02, -5.37432437E-07,
                      -2.66663401E-08,  1.12694937E-11, -2.00354520E+04,
                       6.91645199E+00]),
                NASA([1070.94, 5000.00],
                     [ 9.77792502E+00,  4.38845971E-02, -1.72450469E-05,
                       3.13468094E-09, -2.16071510E-13, -2.31793416E+04,
                      -4.17117160E+01])))

species(name=u'SX(184)',
        atoms='H:11 C:6 X:1',
        thermo=(NASA([100.00, 996.76],
                     [ 1.22387093E+00,  4.65813911E-02,  1.88286839E-05,
                      -5.31476442E-08,  2.23784278E-11, -4.48400780E+03,
                       5.15231381E+00]),
                NASA([996.76, 5000.00],
                     [ 1.30217585E+01,  3.34007173E-02, -1.27486852E-05,
                       2.35864380E-09, -1.67706149E-13, -8.53311406E+03,
                      -6.02408109E+01])))

species(name=u'C4H7X(204)',
        atoms='H:7 C:4 X:1',
        thermo=(NASA([100.00, 947.75],
                     [ 2.86440387E+00,  8.12954614E-03,  7.59606536E-05,
                      -1.03618267E-07,  4.00694538E-11, -5.87941024E+03,
                      -2.40038485E+00]),
                NASA([947.75, 5000.00],