units(length='cm', time='s', quantity='mol', act_energy='kcal/mol')

ideal_gas(name='gas',
          elements="H D T C Ci O Oi N Ne Ar He Si S Cl X",
          species="""n-heptane   Ar          He          Ne
                     N2          C2H4(2)     C4H8-1(3)   C4H8-2(4)
                     C4H6(7)     C6H8(9)     C4H6a(55)   C8H10(78)
                     C6H8(122)   C8H10(125)  C8H10(129)  C6H10(140)
                     C4H10(141)  C8H12(167)  C6H12(172)  C6H12(189)
                     C8H12(200)  C6H12(205)  C6H12(416)  S(470)
                     C8H14(506)  C5H8c(521)  C8H14(754)  S(1467)
                     S(1471)     S(1511)     S(1590)     S(1692)
                     S(2306)     C5H8(2359)  S(2634)     S(2808)
                     S(3047)     S(3151)     S(3461)     S(4259)
                     S(4276)     S(4394)     S(4498)     S(4517)
                     S(4638)     S(5049)     S(6179)     S(6188)
                     S(7554)     S(7598)     S(8371)     S(8752)
                     S(11013)    S(11327)    S(11338)    S(11619)
                     S(12434)    S(12535)""",
          reactions='gas-*',
          initial_state=state(temperature=300.0, pressure=OneAtm))

ideal_interface(name='surface1',
                elements="H D T C Ci O Oi N Ne Ar He Si S Cl X",
                species="""X(1)        HX(5)       C2H3X(27)   CH3X(29)
                          C2H5X(30)   C4H7X(31)   C4H7X(32)   C4H7X(33)
                          C4H7X(34)   C3H5X(35)   C4H7X(36)   C4H7X(37)
                          C4H9X(44)   C4H9X(45)   C2H2X(49)   C6H11X(51)
                          C6H11X(52)  C4H5X(56)   C4H5X(57)   C6H9X(65)
                          C6H9X(66)   C6H9X(72)   C8H13X(73)  C8H13X(75)
                          C8H11X(76)  C8H11X(77)  C6H7X(84)   C6H7X(85)
                          C6H7X(86)   C6H9X(97)   C8H11X(99)  C6H9X(118)
                          SX(123)     SX(124)     CH2X(130)   SX(132)
                          SX(133)     SX(134)     SX(139)     SX(165)
                          C4H7X(177)  SX(178)     SX(198)     C6H9X(210)
                          C6H7X(235)  C6H9X(249)  SX(251)     SX(289)
                          SX(316)     SX(365)     C4H6X(402)  C6H9X(461)
                          SX(464)     SX(468)     SX(540)     SX(541)
                          SX(643)     SX(645)     SX(653)     SX(654)
                          SX(745)     SX(782)     SX(885)     SX(886)
                          C6H9X(941)  SX(1045)    SX(1046)    SX(1047)
                          SX(1048)    SX(1049)    SX(1087)    SX(1189)
                          SX(1266)    SX(1284)    SX(1285)    SX(1286)
                          SX(1318)    SX(1320)    SX(1321)    SX(1322)
                          SX(1341)    SX(1342)    SX(1343)    SX(1344)
                          SX(1419)    SX(1420)    SX(1465)    SX(1466)
                          SX(1502)    SX(1584)    SX(1585)    SX(1586)
                          SX(1702)    SX(1703)    SX(1724)    SX(1725)
                          SX(1727)    SX(1962)    SX(1978)    SX(1979)
                          SX(1980)    SX(2047)    SX(2131)    SX(2134)
                          SX(2266)    SX(2307)    SX(2467)    SX(2573)
                          SX(2636)    SX(2699)    SX(2870)    SX(2904)
                          SX(2905)    SX(2951)    SX(2976)    SX(2977)
                          SX(2978)    SX(3042)    SX(3074)    SX(3218)
                          SX(3219)    SX(3229)    SX(3462)    SX(3620)
                          SX(3621)    SX(3633)    SX(3886)    SX(3887)
                          SX(3889)    SX(3919)    SX(3930)    SX(3952)
                          SX(3953)    SX(3985)    SX(4012)    SX(4261)
                          SX(4310)    SX(4311)    SX(4312)    SX(4313)
                          SX(4501)    SX(4549)    SX(4550)    SX(4551)
                          SX(4552)    SX(4556)    SX(4634)    SX(4653)
                          SX(4750)    SX(4786)    SX(4787)    SX(4788)
                          SX(4789)    SX(4877)    SX(4984)    SX(5092)
                          SX(5093)    SX(5147)    SX(5196)    SX(5197)
                          SX(5198)    SX(5202)    SX(5560)    SX(6088)
                          SX(6098)    SX(6099)    SX(6106)    SX(6107)
                          SX(6143)    SX(6161)    SX(6214)    SX(6239)
                          SX(6327)    SX(6419)    SX(6420)    SX(6708)
                          SX(6709)    SX(6791)    SX(6820)    SX(6821)
                          SX(6822)    SX(6871)    SX(6961)    SX(7026)
                          SX(7217)    SX(7279)    SX(7280)    SX(7281)
                          SX(7282)    SX(7286)    SX(7287)    SX(7550)
                          SX(7551)    SX(7553)    SX(7572)    SX(7599)
                          SX(7897)    SX(8240)    SX(8270)    SX(8271)
                          SX(8272)    SX(8273)    SX(8274)    SX(8338)
                          SX(8339)    SX(8353)    SX(8354)    SX(8457)
                          SX(8529)    SX(8629)    SX(8656)    SX(8674)
                          SX(8745)    SX(8748)    SX(9482)    CHX(9843)
                          SX(10134)   SX(10790)   SX(10837)   SX(10838)
                          SX(10943)   SX(10980)   SX(11009)   SX(11038)
                          SX(11080)   SX(11081)   SX(11082)   SX(11083)
                          SX(11084)   SX(11085)   SX(11127)   SX(11128)
                          SX(11129)   SX(11329)   SX(11372)   SX(11373)
                          SX(11374)   SX(11375)   SX(11376)   SX(11465)
                          SX(11565)   SX(11599)   SX(11601)   SX(11621)
                          SX(11641)   SX(11733)   SX(11734)   SX(11735)
                          SX(11736)   SX(11737)   SX(11772)   SX(11832)
                          SX(12378)   SX(12392)   SX(12536)   SX(12872)
                          SX(13124)   SX(13148)   SX(13174)   SX(13204)""",
                site_density=2.72e-09,
                phases="gas",
          reactions='surface1-*',
                initial_state=state(temperature=300.0, pressure=OneAtm))

#-------------------------------------------------------------------------------
# Element data
#-------------------------------------------------------------------------------

element(symbol=u'X', atomic_mass=195.083)
element(symbol=u'Ci', atomic_mass=13.003)
element(symbol=u'D', atomic_mass=2.014)
element(symbol=u'Oi', atomic_mass=18.0)
element(symbol=u'T', atomic_mass=3.016)
#-------------------------------------------------------------------------------
# Species data
#-------------------------------------------------------------------------------

species(name=u'n-heptane',
        atoms='H:16 C:7',
        thermo=(NASA([100.00, 1262.73],
                     [-2.91681405E-03,  7.69373649E-02, -3.48025563E-05,
                       1.86095180E-09,  2.01573617E-12, -2.57829342E+04,
                       3.00312148E+01]),
                NASA([1262.73, 5000.00],
                     [ 1.38377915E+01,  4.85945016E-02, -1.95474548E-05,
                       3.52837178E-09, -2.39064676E-13, -3.05141556E+04,
                      -4.48642836E+01])))

species(name=u'Ar',
        atoms='Ar:1',
        thermo=(NASA([200.00, 1000.00],
                     [ 2.50000000E+00,  0.00000000E+00,  0.00000000E+00,
                       0.00000000E+00,  0.00000000E+00, -7.45375000E+02,
                       4.37967000E+00]),
                NASA([1000.00, 6000.00],
                     [ 2.50000000E+00,  0.00000000E+00,  0.00000000E+00,
                       0.00000000E+00,  0.00000000E+00, -7.45375000E+02,
                       4.37967000E+00])))

species(name=u'He',
        atoms='He:1',
        thermo=(NASA([200.00, 1000.00],
                     [ 2.50000000E+00,  0.00000000E+00,  0.00000000E+00,
                       0.00000000E+00,  0.00000000E+00, -7.45375000E+02,
                       9.28724000E-01]),
                NASA([1000.00, 6000.00],
                     [ 2.50000000E+00,  0.00000000E+00,  0.00000000E+00,
                       0.00000000E+00,  0.00000000E+00, -7.45375000E+02,
                       9.28724000E-01])))

species(name=u'Ne',
        atoms='Ne:1',
        thermo=(NASA([200.00, 1000.00],
                     [ 2.50000000E+00,  0.00000000E+00,  0.00000000E+00,
                       0.00000000E+00,  0.00000000E+00, -7.45375000E+02,
                       3.35532000E+00]),
                NASA([1000.00, 6000.00],
                     [ 2.50000000E+00,  0.00000000E+00,  0.00000000E+00,
                       0.00000000E+00,  0.00000000E+00, -7.45375000E+02,
                       3.35532000E+00])))

species(name=u'N2',
        atoms='N:2',
        thermo=(NASA([200.00, 1000.00],
                     [ 3.53101000E+00, -1.23661000E-04, -5.02999000E-07,
                       2.43531000E-09, -1.40881000E-12, -1.04698000E+03,
                       2.96747000E+00]),
                NASA([1000.00, 6000.00],
                     [ 2.95258000E+00,  1.39690000E-03, -4.92632000E-07,
                       7.86010000E-11, -4.60755000E-15, -9.23949000E+02,
                       5.87189000E+00])))

species(name=u'C2H4(2)',
        atoms='H:4 C:2',
        thermo=(NASA([100.00, 979.36],
                     [ 3.97471606E+00, -4.75844285E-03,  4.16783770E-05,
                      -4.51392516E-08,  1.54224761E-11,  4.91540746E+03,
                       3.62430844E+00]),
                NASA([979.36, 5000.00],
                     [ 3.55660610E+00,  1.10627464E-02, -4.17019079E-06,
                       7.85586770E-10, -5.70060829E-14,  4.32046489E+03,
                       2.17719479E+00])))

species(name=u'C4H8-1(3)',
        atoms='H:8 C:4',
        thermo=(NASA([100.00, 1007.28],
                     [ 2.58772906E+00,  2.32777969E-02,  1.93412349E-05,
                      -3.55496333E-08,  1.36906009E-11, -1.91872926E+03,
                       1.45750618E+01]),
                NASA([1007.28, 5000.00],
                     [ 7.20517168E+00,  2.36361568E-02, -9.03150028E-06,
                       1.65392666E-09, -1.16019260E-13, -3.79733937E+03,
                      -1.24426257E+01])))

species(name=u'C4H8-2(4)',
        atoms='H:8 C:4',
        thermo=(NASA([100.00, 1157.79],
                     [ 2.51998327E+00,  2.76812799E-02,  9.43783469E-07,
                      -1.25009101E-08,  4.67144666E-12, -3.34374767E+03,
                       1.30195623E+01]),
                NASA([1157.79, 5000.00],
                     [ 6.04225708E+00,  2.60072350E-02, -1.04843374E-05,
                       1.90880922E-09, -1.30600505E-13, -4.86276511E+03,
                      -7.52715109E+00])))

species(name=u'C4H6(7)',
        atoms='H:6 C:4',
        thermo=(NASA([100.00, 946.05],
                     [ 2.80599310E+00,  1.02584471E-02,  6.17260255E-05,
                      -9.01642687E-08,  3.59116961E-11,  1.16584972E+04,
                       1.20621434E+01]),
                NASA([946.05, 5000.00],
                     [ 1.24693720E+01,  1.00553901E-02, -2.41206872E-06,
                       4.57077303E-10, -3.93160571E-14,  8.01077795E+03,
                      -4.36374720E+01])))

species(name=u'C6H8(9)',
        atoms='H:8 C:6',
        thermo=(NASA([100.00, 941.22],
                     [ 1.38427980E+00,  4.14411503E-02,  1.94287417E-05,
                      -6.16688700E-08,  2.86503633E-11,  1.76317461E+04,
                       1.93257509E+01]),
                NASA([941.22, 5000.00],
                     [ 1.69619680E+01,  1.57221707E-02, -4.10118367E-06,
                       6.95736344E-10, -5.26521484E-14,  1.29061672E+04,
                      -6.44097553E+01])))

species(name=u'C4H6a(55)',
        atoms='H:6 C:4',
        thermo=(NASA([100.00, 950.38],
                     [ 3.41327601E+00, -4.60830638E-03,  9.57205603E-05,
                      -1.18800574E-07,  4.44495312E-11,  1.74039828E+04,
                       1.01517556E+01]),
                NASA([950.38, 5000.00],
                     [ 9.72156091E+00,  1.36879055E-02, -3.93842260E-06,
                       7.58710118E-10, -6.16013131E-14,  1.41795804E+04,
                      -3.06164436E+01])))

species(name=u'C8H10(78)',
        atoms='H:10 C:8',
        thermo=(NASA([100.00, 941.38],
                     [ 8.64508879E-02,  6.59507123E-02,  1.49007776E-06,
                      -6.06862449E-08,  3.13845046E-11,  2.39088929E+04,
                       2.66192822E+01]),
                NASA([941.38, 5000.00],
                     [ 2.28417755E+01,  1.96704891E-02, -5.08803462E-06,
                       8.53682038E-10, -6.42382395E-14,  1.73909786E+04,
                      -9.36509497E+01])))

species(name=u'C6H8(122)',
        atoms='H:8 C:6',
        thermo=(NASA([100.00, 972.94],
                     [ 1.82686070E+00,  3.47046353E-02,  2.41070171E-05,
                      -5.44847920E-08,  2.29388832E-11,  1.99100661E+04,
                       1.81393315E+01]),
                NASA([972.94, 5000.00],
                     [ 1.21686202E+01,  2.40472785E-02, -8.58151834E-06,
                       1.57034031E-09, -1.12795334E-13,  1.63897115E+04,
                      -3.92195169E+01])))

species(name=u'C8H10(125)',
        atoms='H:10 C:8',
        thermo=(NASA([100.00, 966.00],
                     [ 5.26364552E-01,  5.92493286E-02,  6.02658334E-06,
                      -5.32875938E-08,  2.55662369E-11,  2.61873255E+04,
                       2.61353490E+01]),
                NASA([966.00, 5000.00],
                     [ 1.80461436E+01,  2.79985777E-02, -9.56971683E-06,
                       1.72854036E-09, -1.24398543E-13,  2.08757672E+04,
                      -6.77541641E+01])))

species(name=u'C8H10(129)',
        atoms='H:10 C:8',
        thermo=(NASA([100.00, 1006.91],
                     [ 9.59099136E-01,  5.26052795E-02,  1.05118295E-05,
                      -4.60808495E-08,  1.99632153E-11,  2.84660811E+04,
                       2.42924801E+01]),
                NASA([1006.91, 5000.00],
                     [ 1.34171277E+01,  3.60526403E-02, -1.38971709E-05,
                       2.56761905E-09, -1.81631637E-13,  2.42875578E+04,
                      -4.41873377E+01])))

species(name=u'C6H10(140)',
        atoms='H:10 C:6',
        thermo=(NASA([100.00, 1020.63],
                     [ 9.97427413E-01,  5.59777045E-02, -2.05880600E-05,
                      -1.17182304E-08,  8.13452041E-12,  6.30749855E+03,
                       2.38941836E+01]),
                NASA([1020.63, 5000.00],
                     [ 1.33828218E+01,  2.83661253E-02, -1.07663110E-05,
                       1.95749020E-09, -1.36589418E-13,  2.68926840E+03,
                      -4.14511818E+01])))

species(name=u'C4H10(141)',
        atoms='H:10 C:4',
        thermo=(NASA([100.00, 1147.60],
                     [ 2.16918413E+00,  3.43904632E-02, -1.61564236E-06,
                      -1.30726562E-08,  5.17350451E-12, -1.72505136E+04,
                       1.46546701E+01]),
                NASA([1147.60, 5000.00],
                     [ 6.78903089E+00,  3.03598162E-02, -1.21262050E-05,
                       2.19945025E-09, -1.50289312E-13, -1.91057969E+04,
                      -1.17329103E+01])))

species(name=u'C8H12(167)',
        atoms='H:12 C:8',
        thermo=(NASA([100.00, 1066.82],
                     [-6.90279206E-02,  7.77631354E-02, -4.25469002E-05,
                       2.07979121E-09,  4.19202863E-12,  1.30198536E+04,
                       2.96530167E+01]),
                NASA([1066.82, 5000.00],
                     [ 1.62725496E+01,  3.71185641E-02, -1.44020029E-05,
                       2.61623348E-09, -1.80996976E-13,  8.35933475E+03,
                      -5.57441245E+01])))

species(name=u'C6H12(172)',
        atoms='H:12 C:6',
        thermo=(NASA([100.00, 1018.92],
                     [ 1.21827324E+00,  4.88303598E-02,  8.49335826E-06,
                      -3.91899735E-08,  1.67107196E-11, -8.55522126E+03,
                       2.43074946E+01]),
                NASA([1018.92, 5000.00],
                     [ 1.16698119E+01,  3.59250755E-02, -1.39120664E-05,
                       2.55991991E-09, -1.79822160E-13, -1.21450086E+04,
                      -3.34751762E+01])))

species(name=u'C6H12(189)',
        atoms='H:12 C:6',
        thermo=(NASA([100.00, 1083.88],
                     [ 1.36789859E+00,  4.60332170E-02,  1.03872042E-05,
                      -3.61548644E-08,  1.41144370E-11, -9.21215455E+03,
                       2.36685346E+01]),
                NASA([1083.88, 5000.00],
                     [ 1.07762218E+01,  3.82405519E-02, -1.60946813E-05,
                       3.05489613E-09, -2.16276948E-13, -1.28334192E+04,
                      -2.97757608E+01])))

species(name=u'C8H12(200)',
        atoms='H:12 C:8',
        thermo=(NASA([100.00, 969.72],
                     [ 3.93158683E-02,  6.94810364E-02, -5.67867310E-06,
                      -4.59940342E-08,  2.36868668E-11,  1.06247696E+04,
                       2.95643335E+01]),
                NASA([969.72, 5000.00],
                     [ 1.95488470E+01,  3.08499781E-02, -1.06480761E-05,
                       1.91982703E-09, -1.37319493E-13,  4.87359776E+03,
                      -7.41022237E+01])))

species(name=u'C6H12(205)',
        atoms='H:12 C:6',
        thermo=(NASA([100.00, 1839.14],
                     [ 7.39766525E-01,  6.35836379E-02, -3.85035731E-05,
                       1.16726754E-08, -1.43915861E-12, -9.53996498E+03,
                       2.35193792E+01]),
                NASA([1839.14, 5000.00],
                     [ 1.56639911E+01,  3.11245214E-02, -1.20299805E-05,
                       2.07631491E-09, -1.34696441E-13, -1.50295162E+04,
                      -5.75746881E+01])))

species(name=u'C6H12(416)',
        atoms='H:12 C:6',
        thermo=(NASA([100.00, 3144.72],
                     [ 1.62486600E+00,  5.81706891E-02, -2.94074668E-05,
                       6.41453677E-09, -5.27511383E-13, -9.95070725E+03,
                       2.05730324E+01]),
                NASA([3144.72, 5000.00],
                     [ 2.63049846E+01,  2.09689465E-02, -8.89163385E-06,
                       1.47783715E-09, -8.83519412E-14, -2.26006402E+04,
                      -1.22203751E+02])))

species(name=u'S(470)',
        atoms='H:14 C:10',
        thermo=(NASA([100.00, 1023.31],
                     [-1.35330722E+00,  1.02145774E-01, -6.02126710E-05,
                       2.98654008E-09,  6.82391097E-12,  1.92963887E+04,
                       3.62027847E+01]),
                NASA([1023.31, 5000.00],
                     [ 2.19165271E+01,  4.14492753E-02, -1.56018190E-05,
                       2.82319586E-09, -1.96568943E-13,  1.29494494E+04,
                      -8.43388976E+01])))

species(name=u'C8H14(506)',
        atoms='H:14 C:8',
        thermo=(NASA([100.00, 1016.24],
                     [-1.96755810E-01,  7.73095243E-02, -2.22060748E-05,
                      -2.37977152E-08,  1.39856141E-11, -3.01706290E+03,
                       3.14467567E+01]),
                NASA([1016.24, 5000.00],
                     [ 1.72430776E+01,  4.07122350E-02, -1.54899285E-05,
                       2.82736868E-09, -1.98028177E-13, -8.21651015E+03,
                      -6.11132465E+01])))

species(name=u'C5H8c(521)',
        atoms='H:8 C:5',
        thermo=(NASA([100.00, 1004.86],
                     [ 1.98273955E+00,  3.49998332E-02,  6.98515281E-06,
                      -3.05031334E-08,  1.32246652E-11,  6.96521034E+03,
                       1.60818191E+01]),
                NASA([1004.86, 5000.00],
                     [ 1.01246420E+01,  2.42323877E-02, -9.24886971E-06,
                       1.70115950E-09, -1.20059732E-13,  4.23624320E+03,
                      -2.86745770E+01])))

species(name=u'C8H14(754)',
        atoms='H:14 C:8',
        thermo=(NASA([100.00, 996.85],
                     [-2.51936173E-01,  7.74918354E-02, -1.85584564E-05,
                      -3.05650944E-08,  1.71489431E-11, -2.46039773E+03,
                       3.10132649E+01]),
                NASA([996.85, 5000.00],
                     [ 1.82159670E+01,  3.90829101E-02, -1.44768342E-05,
                       2.62789418E-09, -1.84646738E-13, -7.91590818E+03,
                      -6.69213086E+01])))

species(name=u'S(1467)',
        atoms='H:14 C:10',
        thermo=(NASA([100.00, 1013.88],
                     [-1.03527521E+00,  8.99214218E-02, -2.04491278E-05,
                      -3.87098816E-08,  2.10701742E-11,  2.19500184E+04,
                       3.75590118E+01]),
                NASA([1013.88, 5000.00],
                     [ 2.29265009E+01,  4.12101070E-02, -1.61763087E-05,
                       3.05734712E-09, -2.20216432E-13,  1.47358972E+04,
                      -8.99879804E+01])))

species(name=u'S(1471)',
        atoms='H:14 C:10',
        thermo=(NASA([100.00, 1012.53],
                     [-1.20605840E+00,  9.40401291E-02, -2.93709084E-05,
                      -3.14398490E-08,  1.89945163E-11,  2.17676358E+04,
                       3.69663981E+01]),
                NASA([1012.53, 5000.00],
                     [ 2.36543438E+01,  4.03205348E-02, -1.56993177E-05,
                       2.95478832E-09, -2.12434612E-13,  1.44525644E+04,
                      -9.45425192E+01])))

species(name=u'S(1511)',
        atoms='H:14 C:10',
        thermo=(NASA([100.00, 1160.87],
                     [-1.01015775E+00,  9.64221881E-02, -5.82621494E-05,
                       1.24156524E-08,  7.64227212E-13,  2.15791627E+04,
                       3.60761300E+01]),
                NASA([1160.87, 5000.00],
                     [ 1.85105543E+01,  4.75366078E-02, -1.88404984E-05,
                       3.41278515E-09, -2.33582160E-13,  1.58087073E+04,
                      -6.63452014E+01])))

species(name=u'S(1590)',
        atoms='H:12 C:8',
        thermo=(NASA([100.00, 1520.46],
                     [ 3.33256816E-01,  7.70233903E-02, -5.19909225E-05,
                       1.84125603E-08, -2.72977416E-12,  1.52768255E+04,
                       2.88681811E+01]),
                NASA([1520.46, 5000.00],
                     [ 1.38154091E+01,  4.15547541E-02, -1.69995468E-05,
                       3.07009936E-09, -2.07104980E-13,  1.11770134E+04,
                      -4.18245982E+01])))

species(name=u'S(1692)',
        atoms='H:12 C:8',
        thermo=(NASA([100.00, 996.08],
                     [-1.55054420E-01,  7.76017702E-02, -3.37454095E-05,
                      -1.34614252E-08,  1.13198940E-11,  8.83061944E+03,
                       2.79505218E+01]),
                NASA([996.08, 5000.00],
                     [ 1.82444884E+01,  3.35255263E-02, -1.22645795E-05,
                       2.20885887E-09, -1.54520851E-13,  3.68623383E+03,
                      -6.81680129E+01])))

species(name=u'S(2306)',
        atoms='H:10 C:6',
        thermo=(NASA([100.00, 2066.82],
                     [ 1.96487466E+00,  5.04479236E-02, -2.24823496E-05,
                       3.26198053E-09,  2.73496389E-15,  6.31812967E+03,
                       1.91308704E+01]),
                NASA([2066.82, 5000.00],
                     [ 2.01362223E+01,  2.52311191E-02, -1.14030833E-05,
                       2.01775234E-09, -1.28532875E-13, -3.31865112E+03,
                      -8.68696867E+01])))

species(name=u'C5H8(2359)',
        atoms='H:8 C:5',
        thermo=(NASA([100.00, 1049.25],
                     [ 2.01062155E+00,  3.15407187E-02,  2.07789480E-05,
                      -4.44088985E-08,  1.72419112E-11,  7.01383967E+03,
                       1.65768346E+01]),
                NASA([1049.25, 5000.00],
                     [ 1.14809937E+01,  2.45641673E-02, -1.08867259E-05,
                       2.16707025E-09, -1.59145781E-13,  3.42314914E+03,
                      -3.72078866E+01])))

species(name=u'S(2634)',
        atoms='H:12 C:6',
        thermo=(NASA([100.00, 1698.33],
                     [ 1.59095742E+00,  5.26758494E-02, -1.83561979E-05,
                      -1.06676417E-09,  1.11255271E-12, -1.06220126E+04,
                       2.16531738E+01]),
                NASA([1698.33, 5000.00],
                     [ 1.44977568E+01,  3.62929517E-02, -1.62656052E-05,
                       2.97191363E-09, -1.97262818E-13, -1.70273370E+04,
                      -5.34016107E+01])))

species(name=u'S(2808)',
        atoms='H:12 C:6',
        thermo=(NASA([100.00, 1829.14],
                     [ 7.23497206E-01,  6.40962986E-02, -3.88937857E-05,
                       1.18285810E-08, -1.46479639E-12, -9.55473307E+03,
                       2.34752956E+01]),
                NASA([1829.14, 5000.00],
                     [ 1.55815550E+01,  3.16049972E-02, -1.22495396E-05,
                       2.11773097E-09, -1.37578189E-13, -1.49903266E+04,
                      -5.71784952E+01])))

species(name=u'S(3047)',
        atoms='H:14 C:10',
        thermo=(NASA([100.00, 979.13],
                     [-1.61786644E+00,  1.06166096E-01, -6.04080465E-05,
                      -5.41801887E-09,  1.20423333E-11,  1.49251320E+04,
                       3.39372406E+01]),
                NASA([979.13, 5000.00],
                     [ 2.48037279E+01,  3.66649106E-02, -1.28202507E-05,
                       2.27494797E-09, -1.59205363E-13,  7.90859579E+03,
                      -1.02383319E+02])))

species(name=u'S(3151)',
        atoms='H:12 C:6',
        thermo=(NASA([100.00, 1917.57],
                     [ 2.29989638E+00,  4.93347109E-02, -1.39908418E-05,
                      -2.79410381E-09,  1.20747058E-12, -1.03230301E+04,
                       1.84311611E+01]),
                NASA([1917.57, 5000.00],
                     [ 1.85703860E+01,  3.37500613E-02, -1.61580314E-05,
                       2.95111967E-09, -1.92346931E-13, -1.99376584E+04,
                      -7.94569206E+01])))

species(name=u'S(3461)',
        atoms='H:10 C:6',
        thermo=(NASA([100.00, 1057.19],
                     [ 1.32003537E+00,  4.84544999E-02, -5.79624644E-06,
                      -2.18049081E-08,  1.02541120E-11,  5.44649962E+03,
                       2.34886632E+01]),
                NASA([1057.19, 5000.00],
                     [ 1.18393426E+01,  3.09141412E-02, -1.24938257E-05,
                       2.33617137E-09, -1.64723228E-13,  1.97834329E+03,
                      -3.37293579E+01])))

species(name=u'S(4259)',
        atoms='H:12 C:8',
        thermo=(NASA([100.00, 1093.32],
                     [ 2.36637697E-01,  7.13806073E-02, -3.04205239E-05,
                      -5.26761999E-09,  5.54497945E-12,  1.11111992E+04,
                       2.69517569E+01]),
                NASA([1093.32, 5000.00],
                     [ 1.41535962E+01,  4.07049724E-02, -1.61040105E-05,
                       2.93544374E-09, -2.02595338E-13,  6.85832312E+03,
                      -4.69635767E+01])))

species(name=u'S(4276)',
        atoms='H:12 C:8',
        thermo=(NASA([100.00, 1093.32],
                     [ 2.36638241E-01,  7.13806010E-02, -3.04205030E-05,
                      -5.26764556E-09,  5.54498963E-12,  1.09350726E+04,
                       2.64146056E+01]),
                NASA([1093.32, 5000.00],
                     [ 1.41535930E+01,  4.07049777E-02, -1.61040135E-05,
                       2.93544444E-09, -2.02595395E-13,  6.68219791E+03,
                      -4.75007076E+01])))

species(name=u'S(4394)',
        atoms='H:12 C:6',
        thermo=(NASA([100.00, 1669.48],
                     [ 1.53174148E+00,  5.28581860E-02, -1.89682696E-05,
                      -7.62455342E-10,  1.08593390E-12, -9.44873727E+03,
                       2.14414196E+01]),
                NASA([1669.48, 5000.00],
                     [ 1.41707554E+01,  3.61096226E-02, -1.60799521E-05,
                       2.93994576E-09, -1.95627554E-13, -1.55549272E+04,
                      -5.16608415E+01])))

species(name=u'S(4498)',
        atoms='H:12 C:8',
        thermo=(NASA([100.00, 1018.55],
                     [ 6.01063084E-02,  7.29655393E-02, -2.58705028E-05,
                      -1.72899943E-08,  1.14983085E-11,  1.25335342E+04,
                       3.02021008E+01]),
                NASA([1018.55, 5000.00],
                     [ 1.68364676E+01,  3.58886254E-02, -1.36909925E-05,
                       2.50533844E-09, -1.75806316E-13,  7.62178202E+03,
                      -5.83776552E+01])))

species(name=u'S(4517)',
        atoms='H:12 C:8',
        thermo=(NASA([100.00, 996.08],
                     [-1.55054420E-01,  7.76017702E-02, -3.37454095E-05,
                      -1.34614252E-08,  1.13198940E-11,  8.83061944E+03,
                       2.79505218E+01]),
                NASA([996.08, 5000.00],
                     [ 1.82444884E+01,  3.35255263E-02, -1.22645795E-05,
                       2.20885887E-09, -1.54520851E-13,  3.68623383E+03,
                      -6.81680129E+01])))

species(name=u'S(4638)',
        atoms='H:14 C:10',
        thermo=(NASA([100.00, 996.48],
                     [-8.32953253E-01,  8.74411423E-02, -1.95135815E-05,
                      -3.72291183E-08,  2.05332292E-11,  1.91809743E+04,
                       3.57332531E+01]),
                NASA([996.48, 5000.00],
                     [ 2.07889912E+01,  4.28673712E-02, -1.59697751E-05,
                       2.91838151E-09, -2.06252167E-13,  1.27756680E+04,
                      -7.90216093E+01])))

species(name=u'S(5049)',
        atoms='H:14 C:8',
        thermo=(NASA([100.00, 1127.64],
                     [-4.64068528E-01,  8.62080391E-02, -5.25691144E-05,
                       1.10364952E-08,  9.56014758E-13, -4.80798140E+03,
                       3.00996902E+01]),
                NASA([1127.64, 5000.00],
                     [ 1.67490257E+01,  4.20738599E-02, -1.63745215E-05,
                       2.94789904E-09, -2.01524080E-13, -9.76606900E+03,