units(length='cm', time='s', quantity='mol', act_energy='kcal/mol')

ideal_gas(name='gas',
          elements="H D T C Ci O Oi N Ne Ar He Si S Cl X",
          species="""Ar          Ne          N2          He(2)
                     CH4(3)      H2(4)       C2H6(5)     CH3(6)
                     C3H8(7)     H(8)        C2H5(9)     C4H8(10)
                     C2H4(11)    C4H6(119)   C4H8(177)   C6H12(184)
                     C6H12(216)  C6H12(296)""",
          reactions='gas-*',
          transport='Mix',
          initial_state=state(temperature=300.0, pressure=OneAtm))

ideal_interface(name='surface1',
                elements="H D T C Ci O Oi N Ne Ar He Si S Cl X",
                species="""X(1)        HX(12)      HeX(84)     H2X(86)
                          C2H5X(87)   C2H6X(88)   C2H3X(93)   C4H7X(94)
                          C4H7X(95)   C4H8X(98)   C2H4X(99)   C4H9X(120)
                          C4H9X(121)  C4H6X(137)  SX(165)     SX(183)
                          C4H8X(196)  SX(210)     SX(218)     SX(254)
                          SX(339)     SX(424)""",
                site_density=2.72e-09,
                phases="gas",
          reactions='surface1-*',
                initial_state=state(temperature=300.0, pressure=OneAtm))

#-------------------------------------------------------------------------------
# Element data
#-------------------------------------------------------------------------------

element(symbol=u'X', atomic_mass=195.083)
element(symbol=u'Ci', atomic_mass=13.003)
element(symbol=u'D', atomic_mass=2.014)
element(symbol=u'Oi', atomic_mass=18.0)
element(symbol=u'T', atomic_mass=3.016)
#-------------------------------------------------------------------------------
# Species data
#-------------------------------------------------------------------------------

species(name=u'Ar',
        atoms='Ar:1',
        thermo=(NASA([200.00, 1000.00],
                     [ 2.50000000E+00,  0.00000000E+00,  0.00000000E+00,
                       0.00000000E+00,  0.00000000E+00, -7.45375000E+02,
                       4.37967000E+00]),
                NASA([1000.00, 6000.00],
                     [ 2.50000000E+00,  0.00000000E+00,  0.00000000E+00,
                       0.00000000E+00,  0.00000000E+00, -7.45375000E+02,
                       4.37967000E+00])),
        transport=gas_transport(geom='atom',
                                diam=3.33,
                                well_depth=136.5))

species(name=u'Ne',
        atoms='Ne:1',
        thermo=(NASA([200.00, 1000.00],
                     [ 2.50000000E+00,  0.00000000E+00,  0.00000000E+00,
                       0.00000000E+00,  0.00000000E+00, -7.45375000E+02,
                       3.35532000E+00]),
                NASA([1000.00, 6000.00],
                     [ 2.50000000E+00,  0.00000000E+00,  0.00000000E+00,
                       0.00000000E+00,  0.00000000E+00, -7.45375000E+02,
                       3.35532000E+00])),
        transport=gas_transport(geom='atom',
                                diam=3.758,
                                well_depth=148.6))

species(name=u'N2',
        atoms='N:2',
        thermo=(NASA([200.00, 1000.00],
                     [ 3.53101000E+00, -1.23661000E-04, -5.02999000E-07,
                       2.43531000E-09, -1.40881000E-12, -1.04698000E+03,
                       2.96747000E+00]),
                NASA([1000.00, 6000.00],
                     [ 2.95258000E+00,  1.39690000E-03, -4.92632000E-07,
                       7.86010000E-11, -4.60755000E-15, -9.23949000E+02,
                       5.87189000E+00])),
        transport=gas_transport(geom='linear',
                                diam=3.621,
                                well_depth=97.53,
                                polar=1.76,
                                rot_relax=4.0))

species(name=u'He(2)',
        atoms='He:1',
        thermo=(NASA([200.00, 1000.00],
                     [ 2.50000000E+00,  0.00000000E+00,  0.00000000E+00,
                       0.00000000E+00,  0.00000000E+00, -7.45375000E+02,
                       9.28724000E-01]),
                NASA([1000.00, 6000.00],
                     [ 2.50000000E+00,  0.00000000E+00,  0.00000000E+00,
                       0.00000000E+00,  0.00000000E+00, -7.45375000E+02,
                       9.28724000E-01])),
        transport=gas_transport(geom='atom',
                                diam=2.576,
                                well_depth=10.2))

species(name=u'CH4(3)',
        atoms='H:4 C:1',
        thermo=(NASA([100.00, 1084.12],
                     [ 4.20541524E+00, -5.35557362E-03,  2.51123265E-05,
                      -2.13762843E-08,  5.97523937E-12, -1.01619433E+04,
                      -9.21279283E-01]),
                NASA([1084.12, 5000.00],
                     [ 9.08265721E-01,  1.14540858E-02, -4.57173828E-06,
                       8.29191671E-10, -5.66314895E-14, -9.71997444E+03,
                       1.39930944E+01])),
        transport=gas_transport(geom='nonlinear',
                                diam=3.746,
                                well_depth=141.4,
                                polar=2.6,
                                rot_relax=13.0))

species(name=u'H2(4)',
        atoms='H:2',
        thermo=(NASA([100.00, 1959.08],
                     [ 3.43536412E+00,  2.12710353E-04, -2.78625043E-07,
                       3.40267167E-10, -7.76031998E-14, -1.03135984E+03,
                      -3.90841732E+00]),
                NASA([1959.08, 5000.00],
                     [ 2.78816583E+00,  5.87640942E-04,  1.59010417E-07,
                      -5.52739026E-11,  4.34310984E-15, -5.96144270E+02,
                       1.12732655E-01])),
        transport=gas_transport(geom='linear',
                                diam=2.833,
                                well_depth=59.7))

species(name=u'C2H6(5)',
        atoms='H:6 C:2',
        thermo=(NASA([100.00, 1012.42],
                     [ 3.72239291E+00,  1.65083841E-03,  3.44175530E-05,
                      -3.76858229E-08,  1.24450657E-11, -1.15575901E+04,
                       4.68247999E+00]),
                NASA([1012.42, 5000.00],
                     [ 2.82848257E+00,  1.73040568E-02, -6.73334245E-06,
                       1.23742024E-09, -8.65676410E-14, -1.19978080E+04,
                       5.93811707E+00])),
        transport=gas_transport(geom='nonlinear',
                                diam=4.302,
                                well_depth=252.3,
                                rot_relax=1.5))

species(name=u'CH3(6)',
        atoms='H:3 C:1',
        thermo=(NASA([100.00, 697.71],
                     [ 3.96043098E+00,  5.92939934E-04,  8.78575390E-06,
                      -9.88030557E-09,  3.63234580E-12,  1.64218818E+04,
                       3.39865631E-01]),
                NASA([697.71, 5000.00],
                     [ 3.09511187E+00,  5.55429874E-03, -1.88158855E-06,
                       3.13335012E-10, -2.05195181E-14,  1.65426192E+04,
                       4.20297876E+00])),
        transport=gas_transport(geom='nonlinear',
                                diam=3.8,
                                well_depth=144.0))

species(name=u'C3H8(7)',
        atoms='H:8 C:3',
        thermo=(NASA([100.00, 989.99],
                     [ 3.06336167E+00,  1.29214561E-02,  3.47032808E-05,
                      -4.70946154E-08,  1.71384141E-11, -1.43905789E+04,
                       1.07835592E+01]),
                NASA([989.99, 5000.00],
                     [ 5.60440043E+00,  2.19528785E-02, -8.22080610E-06,
                       1.50103993E-09, -1.05635358E-13, -1.58394038E+04,
                      -6.22623300E+00])),
        transport=gas_transport(geom='nonlinear',
                                diam=4.982,
                                well_depth=266.801,
                                rot_relax=1.0))

species(name=u'H(8)',
        atoms='H:1',
        thermo=(NASA([100.00, 3459.60],
                     [ 2.50000000E+00,  9.24384602E-15, -1.36779837E-17,
                       6.66184769E-21, -1.00106912E-24,  2.54742178E+04,
                      -4.44972896E-01]),
                NASA([3459.60, 5000.00],
                     [ 2.49999999E+00,  9.20455546E-12, -3.58608293E-15,
                       6.15198922E-19, -3.92041801E-23,  2.54742178E+04,
                      -4.44972842E-01])),
        transport=gas_transport(geom='atom',
                                diam=2.05,
                                well_depth=145.0))

species(name=u'C2H5(9)',
        atoms='H:5 C:2',
        thermo=(NASA([100.00, 1006.87],
                     [ 3.68746539E+00,  3.06889693E-03,  2.55873112E-05,
                      -2.94076576E-08,  9.94076215E-12,  1.31153648E+04,
                       6.96684864E+00]),
                NASA([1006.87, 5000.00],
                     [ 3.53781010E+00,  1.37311636E-02, -5.29564638E-06,
                       9.71482858E-10, -6.80289490E-14,  1.26351790E+04,
                       5.15566048E+00])),
        transport=gas_transport(geom='nonlinear',
                                diam=4.302,
                                well_depth=252.3,
                                rot_relax=1.5))

species(name=u'C4H8(10)',
        atoms='H:8 C:4',
        thermo=(NASA([100.00, 1007.28],
                     [ 2.58772906E+00,  2.32777969E-02,  1.93412349E-05,
                      -3.55496333E-08,  1.36906009E-11, -1.91872926E+03,
                       1.45750618E+01]),
                NASA([1007.28, 5000.00],
                     [ 7.20517168E+00,  2.36361568E-02, -9.03150028E-06,
                       1.65392666E-09, -1.16019260E-13, -3.79733937E+03,
                      -1.24426257E+01])),
        transport=gas_transport(geom='nonlinear',
                                diam=5.176,
                                well_depth=357.002,
                                rot_relax=1.0))

species(name=u'C2H4(11)',
        atoms='H:4 C:2',
        thermo=(NASA([100.00, 979.36],
                     [ 3.97471606E+00, -4.75844285E-03,  4.16783770E-05,
                      -4.51392516E-08,  1.54224761E-11,  4.91540746E+03,
                       3.62430844E+00]),
                NASA([979.36, 5000.00],
                     [ 3.55660610E+00,  1.10627464E-02, -4.17019079E-06,
                       7.85586770E-10, -5.70060829E-14,  4.32046489E+03,
                       2.17719479E+00])),
        transport=gas_transport(geom='nonlinear',
                                diam=3.971,
                                well_depth=280.8,
                                rot_relax=1.5))

species(name=u'C4H6(119)',
        atoms='H:6 C:4',
        thermo=(NASA([100.00, 946.05],
                     [ 2.80599310E+00,  1.02584471E-02,  6.17260255E-05,
                      -9.01642687E-08,  3.59116961E-11,  1.16584972E+04,
                       1.20621434E+01]),
                NASA([946.05, 5000.00],
                     [ 1.24693720E+01,  1.00553901E-02, -2.41206872E-06,
                       4.57077303E-10, -3.93160571E-14,  8.01077795E+03,
                      -4.36374720E+01])),
        transport=gas_transport(geom='nonlinear',
                                diam=5.18,
                                well_depth=357.002,
                                rot_relax=1.0))

species(name=u'C4H8(177)',
        atoms='H:8 C:4',
        thermo=(NASA([100.00, 1157.79],
                     [ 2.51998327E+00,  2.76812799E-02,  9.43783469E-07,
                      -1.25009101E-08,  4.67144666E-12, -3.34374767E+03,
                       1.30195623E+01]),
                NASA([1157.79, 5000.00],
                     [ 6.04225708E+00,  2.60072350E-02, -1.04843374E-05,
                       1.90880922E-09, -1.30600505E-13, -4.86276511E+03,
                      -7.52715109E+00])),
        transport=gas_transport(geom='nonlinear',
                                diam=5.289,
                                well_depth=359.053))

species(name=u'C6H12(184)',
        atoms='H:12 C:6',
        thermo=(NASA([100.00, 1018.92],
                     [ 1.21827324E+00,  4.88303598E-02,  8.49335826E-06,
                      -3.91899735E-08,  1.67107196E-11, -8.55522126E+03,
                       2.43074946E+01]),
                NASA([1018.92, 5000.00],
                     [ 1.16698119E+01,  3.59250755E-02, -1.39120664E-05,
                       2.55991991E-09, -1.79822160E-13, -1.21450086E+04,
                      -3.34751762E+01])),
        transport=gas_transport(geom='nonlinear',
                                diam=5.884,
                                well_depth=388.064))

species(name=u'C6H12(216)',
        atoms='H:12 C:6',
        thermo=(NASA([100.00, 1917.57],
                     [ 2.29989638E+00,  4.93347109E-02, -1.39908418E-05,
                      -2.79410381E-09,  1.20747058E-12, -1.03230301E+04,
                       1.84311611E+01]),
                NASA([1917.57, 5000.00],
                     [ 1.85703860E+01,  3.37500613E-02, -1.61580314E-05,
                       2.95111967E-09, -1.92346931E-13, -1.99376584E+04,
                      -7.94569206E+01])),
        transport=gas_transport(geom='nonlinear',
                                diam=5.95,
                                well_depth=398.057))

species(name=u'C6H12(296)',
        atoms='H:12 C:6',
        thermo=(NASA([100.00, 1083.88],
                     [ 1.36789859E+00,  4.60332170E-02,  1.03872042E-05,
                      -3.61548644E-08,  1.41144370E-11, -9.21215455E+03,
                       2.36685346E+01]),
                NASA([1083.88, 5000.00],
                     [ 1.07762218E+01,  3.82405519E-02, -1.60946813E-05,
                       3.05489613E-09, -2.16276948E-13, -1.28334192E+04,
                      -2.97757608E+01])),
        transport=gas_transport(geom='nonlinear',
                                diam=5.876,
                                well_depth=387.836))

species(name=u'X(1)',
        atoms='X:1',
        thermo=(NASA([100.00, 1554.80],
                     [ 7.10139498E-03, -4.25619522E-05,  8.98533016E-08,
                      -7.80193649E-11,  2.32465471E-14, -8.76101712E-01,
                      -3.11211229E-02]),
                NASA([1554.80, 5000.00],
                     [ 1.60299900E-01, -2.52235409E-04,  1.14181275E-07,
                      -1.21471653E-11,  3.85790025E-16, -7.08100885E+01,
                      -9.09527530E-01])))

species(name=u'HX(12)',
        atoms='H:1 X:1',
        thermo=(NASA([100.00, 952.91],
                     [-3.80965452E-01,  5.47228709E-03,  2.60912778E-06,
                      -9.64961980E-09,  4.63946753E-12,  7.31399420E+02,
                       1.01725550E+00]),
                NASA([952.91, 5000.00],
                     [ 2.80339655E+00, -5.41047017E-04,  4.99507978E-07,
                      -7.54963647E-11,  3.06772366E-15, -2.09349999E+02,
                      -1.59436787E+01])))

species(name=u'HeX(84)',
        atoms='X:1 He:1',
        thermo=(NASA([100.00, 3459.60],
                     [ 2.50000000E+00,  9.24384602E-15, -1.36779837E-17,
                       6.66184769E-21, -1.00106912E-24,  2.51045171E+03,
                      -1.04087993E+01]),
                NASA([3459.60, 5000.00],
                     [ 2.49999999E+00,  9.20455546E-12, -3.58608293E-15,
                       6.15198922E-19, -3.92041801E-23,  2.51045171E+03,
                      -1.04087992E+01])))

species(name=u'H2X(86)',
        atoms='H:2 X:1',
        thermo=(NASA([100.00, 911.33],
                     [-1.27856724E+00,  3.68010102E-02, -8.90296992E-05,
                       8.91132730E-08, -3.14511582E-11, -1.33397682E+03,
                       1.13160562E+01]),
                NASA([911.33, 5000.00],
                     [ 6.45631937E-01,  6.69563800E-03, -3.82690860E-06,
                       7.04725296E-10, -4.41024465E-14, -7.85256799E+02,
                       7.14633349E+00])))

species(name=u'C2H5X(87)',
        atoms='H:5 C:2 X:1',
        thermo=(NASA([100.00, 803.81],
                     [-1.64625424E+00,  3.89626488E-02, -4.31128887E-05,
                       2.97076939E-08, -8.80222915E-12,  3.67645335E+03,
                       9.27323637E+00]),
                NASA([803.81, 5000.00],
                     [ 1.97598112E+00,  2.09382766E-02, -9.47916922E-06,
                       1.81392948E-09, -1.27206354E-13,  3.09410457E+03,
                      -7.41107956E+00])))

species(name=u'C2H6X(88)',
        atoms='H:6 C:2 X:1',
        thermo=(NASA([100.00, 826.21],
                     [-1.73432373E+00,  4.32697501E-02, -6.15090991E-05,
                       5.73040408E-08, -2.14186318E-11, -1.40653271E+04,
                       1.90799961E+01]),
                NASA([826.21, 5000.00],
                     [-4.51891226E-01,  2.66241096E-02, -1.23404364E-05,
                       2.34089053E-09, -1.61299398E-13, -1.39210121E+04,
                       1.52936020E+01])))

species(name=u'C2H3X(93)',
        atoms='H:3 C:2 X:1',
        thermo=(NASA([100.00, 928.62],
                     [ 3.83091018E+00, -8.76381562E-03,  6.97956896E-05,
                      -8.67969174E-08,  3.33218121E-11,  1.53806450E+04,
                      -1.81151753E+01]),
                NASA([928.62, 5000.00],
                     [ 8.78054562E+00,  1.92497720E-03,  8.25825014E-07,
                      -1.63749818E-10,  5.71728318E-15,  1.30812419E+04,
                      -4.90588618E+01])))

species(name=u'C4H7X(94)',
        atoms='H:7 C:4 X:1',
        thermo=(NASA([100.00, 971.02],
                     [ 2.64365035E+00,  1.79007589E-02,  4.24443189E-05,
                      -6.44028479E-08,  2.49593993E-11,  7.88209744E+03,
                      -6.69991651E+00]),
                NASA([971.02, 5000.00],
                     [ 9.25871667E+00,  2.04064152E-02, -7.39143670E-06,
                       1.37021231E-09, -9.94133357E-14,  5.19461331E+03,
                      -4.56426102E+01])))

species(name=u'C4H7X(95)',
        atoms='H:7 C:4 X:1',
        thermo=(NASA([100.00, 986.67],
                     [ 2.45798205E+00,  2.47217336E-02,  2.01285964E-05,
                      -4.02735564E-08,  1.62485845E-11,  1.62842845E+04,
                      -5.12991781E+00]),
                NASA([986.67, 5000.00],
                     [ 8.87898065E+00,  2.09043993E-02, -7.83851223E-06,
                       1.44076477E-09, -1.02346878E-13,  1.39359284E+04,
                      -4.15007572E+01])))

species(name=u'C4H8X(98)',
        atoms='H:8 C:4 X:1',
        thermo=(NASA([100.00, 1076.46],
                     [ 2.22987213E+00,  3.28680883E-02, -3.67129742E-06,
                      -1.27255696E-08,  5.73436008E-12, -4.41614506E+03,
                       6.98841371E+00]),
                NASA([1076.46, 5000.00],
                     [ 7.72832368E+00,  2.48501332E-02, -9.79663413E-06,
                       1.78091180E-09, -1.22693380E-13, -6.31913831E+03,
                      -2.32842382E+01])))

species(name=u'C2H4X(99)',
        atoms='H:4 C:2 X:1',
        thermo=(NASA([100.00, 940.14],
                     [ 3.88321285E+00, -7.62082387E-03,  6.32717827E-05,
                      -7.52954866E-08,  2.79403814E-11,  1.92361230E+03,
                      -1.23955321E+01]),
                NASA([940.14, 5000.00],
                     [ 6.60927305E+00,  6.91828500E-03, -1.62849563E-06,
                       2.98608300E-10, -2.53071850E-14,  2.55938548E+02,
                      -3.15221684E+01])))

species(name=u'C4H9X(120)',
        atoms='H:9 C:4 X:1',
        thermo=(NASA([100.00, 1009.34],
                     [ 2.45382734E+00,  2.40994657E-02,  3.11010256E-05,
                      -4.95699577E-08,  1.85293661E-11, -4.61676854E+02,
                      -3.52847415E+00]),
                NASA([1009.34, 5000.00],
                     [ 7.52084135E+00,  2.82413531E-02, -1.10515535E-05,
                       2.04772333E-09, -1.44617914E-13, -2.71839834E+03,
                      -3.41331625E+01])))

species(name=u'C4H9X(121)',
        atoms='H:9 C:4 X:1',
        thermo=(NASA([100.00, 993.09],
                     [ 2.22649262E+00,  2.86530428E-02,  2.37814781E-05,
                      -4.60601877E-08,  1.82913065E-11,  8.21338031E+02,
                      -3.55141667E+00]),
                NASA([993.09, 5000.00],
                     [ 9.09063018E+00,  2.59568873E-02, -9.83403420E-06,
                       1.80637207E-09, -1.27731480E-13, -1.77238339E+03,
                      -4.28140480E+01])))

species(name=u'C4H6X(137)',
        atoms='H:6 C:4 X:1',
        thermo=(NASA([100.00, 934.93],
                     [ 2.71462354E+00,  7.38686366E-03,  8.33936533E-05,
                      -1.20490719E-07,  4.85412296E-11,  8.66669921E+03,
                      -3.95773030E+00]),
                NASA([934.93, 5000.00],
                     [ 1.55567206E+01,  5.85376435E-03,  1.61851595E-07,
                      -3.73860914E-11, -7.00424081E-15,  3.93111398E+03,
                      -7.75331355E+01])))

species(name=u'SX(165)',
        atoms='H:13 C:6 X:1',
        thermo=(NASA([100.00, 1104.49],
                     [ 9.11736944E-01,  5.71186337E-02, -4.42064989E-06,
                      -2.31827364E-08,  9.89591048E-12, -5.59295511E+03,
                       4.93075254E+00]),
                NASA([1104.49, 5000.00],
                     [ 1.03931710E+01,  4.50091930E-02, -1.81629728E-05,
                       3.33345850E-09, -2.30373441E-13, -9.04320422E+03,
                      -4.78917391E+01])))

species(name=u'SX(183)',
        atoms='H:13 C:6 X:1',
        thermo=(NASA([100.00, 1140.27],
                     [ 9.41790380E-01,  5.59571281E-02, -1.23930313E-06,
                      -2.54812009E-08,  1.02020039E-11, -5.57401351E+03,
                       5.52625906E+00]),
                NASA([1140.27, 5000.00],
                     [ 1.08625288E+01,  4.53521038E-02, -1.91182014E-05,
                       3.58109265E-09, -2.49788598E-13, -9.40950958E+03,
                      -5.05354255E+01])))

species(name=u'C4H8X(196)',
        atoms='H:8 C:4 X:1',
        thermo=(NASA([100.00, 2048.97],
                     [ 2.24665928E+00,  3.61002993E-02, -1.75740961E-05,
                       3.86566673E-09, -3.15334766E-13, -4.71041753E+03,
                       9.27326136E+00]),
                NASA([2048.97, 5000.00],
                     [ 1.23398363E+01,  1.92606197E-02, -7.34301188E-06,
                       1.21904964E-09, -7.56557988E-14, -9.44778171E+03,
                      -4.81278730E+01])))

species(name=u'SX(210)',
        atoms='H:13 C:6 X:1',
        thermo=(NASA([100.00, 1210.11],
                     [ 1.10826561E+00,  5.37308809E-02, -6.37927534E-07,
                      -2.23970084E-08,  8.32635868E-12, -6.86880743E+03,
                       5.70647071E+00]),
                NASA([1210.11, 5000.00],
                     [ 9.93913033E+00,  4.70609403E-02, -2.02853103E-05,
                       3.80581060E-09, -2.64092883E-13, -1.06549784E+04,
                      -4.53945281E+01])))

species(name=u'SX(218)',
        atoms='H:13 C:6 X:1',
        thermo=(NASA([100.00, 1734.41],
                     [ 1.33802965E+00,  5.81661586E-02, -2.03392715E-05,
                      -3.72816826E-10,  9.58300285E-13, -7.98165828E+03,
                       2.78707728E+00]),
                NASA([1734.41, 5000.00],
                     [ 1.46208292E+01,  4.12590504E-02, -1.75885045E-05,
                       3.13290082E-09, -2.04741191E-13, -1.46538081E+04,
                      -7.45609929E+01])))

species(name=u'SX(254)',
        atoms='H:12 C:6 X:1',
        thermo=(NASA([100.00, 2148.31],
                     [ 2.47160001E+00,  5.33083692E-02, -1.98507442E-05,
                       6.70180118E-10,  4.87490375E-13, -1.28454046E+04,
                       8.89621246E+00]),
                NASA([2148.31, 5000.00],
                     [ 2.64881854E+01,  2.60800997E-02, -1.30505040E-05,
                       2.34931237E-09, -1.48885352E-13, -2.72001837E+04,
                      -1.34727856E+02])))

species(name=u'SX(339)',
        atoms='H:12 C:6 X:1',
        thermo=(NASA([100.00, 1163.62],
                     [ 1.00461236E+00,  5.56269387E-02, -1.23484311E-05,
                      -1.41083889E-08,  6.66896725E-12, -1.17092543E+04,
                       1.61053530E+01]),
                NASA([1163.62, 5000.00],
                     [ 1.17709806E+01,  3.87166115E-02, -1.64597364E-05,
                       3.09166031E-09, -2.15729878E-13, -1.55755950E+04,
                      -4.33146993E+01])))

species(name=u'SX(424)',
        atoms='H:12 C:6 X:1',
        thermo=(NASA([100.00, 1063.48],
                     [ 8.57001543E-01,  5.84596692E-02, -1.46482772E-05,
                      -1.62119035E-08,  8.69578362E-12, -1.10524891E+04,
                       1.67331631E+01]),
                NASA([1063.48, 5000.00],
                     [ 1.22152920E+01,  3.71018700E-02, -1.46560820E-05,
                       2.68197251E-09, -1.86090652E-13, -1.46764474E+04,
                      -4.44429899E+01])))

#-------------------------------------------------------------------------------
# Reaction data
#-------------------------------------------------------------------------------
#  Reaction index: Chemkin #1; RMG #56
#  Template reaction: R_Recombination
#  Flux pairs: CH3(6), CH4(3); H(8), CH4(3);
#  Matched reaction 57 H + CH3 <=> CH4 in R_Recombination/training
#  This reaction matched rate rule [C_methyl;H_rad]
#  family: R_Recombination

# Reaction 1
reaction('H(8) + CH3(6) <=> CH4(3)', [1.930000e+14, 0.0, 0.27],
         id='gas-1')
#  Reaction index: Chemkin #2; RMG #58
#  Template reaction: R_Recombination
#  Flux pairs: H(8), H2(4); H(8), H2(4);
#  Matched reaction 56 H + H <=> H2 in R_Recombination/training
#  This reaction matched rate rule [H_rad;H_rad]
#  family: R_Recombination

# Reaction 2
reaction('H(8) + H(8) <=> H2(4)', [5.450000e+10, 0.0, 1.5],
         id='gas-2')
#  Reaction index: Chemkin #3; RMG #59
#  Template reaction: R_Recombination
#  Flux pairs: CH3(6), C2H6(5); CH3(6), C2H6(5);
#  Matched reaction 9 CH3 + CH3 <=> C2H6 in R_Recombination/training
#  This reaction matched rate rule [C_methyl;C_methyl]
#  family: R_Recombination

# Reaction 3
reaction('CH3(6) + CH3(6) <=> C2H6(5)', [9.450000e+14, -0.538, 0.135],
         id='gas-3')
#  Reaction index: Chemkin #4; RMG #60
#  Template reaction: R_Recombination
#  Flux pairs: C2H5(9), C2H6(5); H(8), C2H6(5);
#  Matched reaction 58 H + C2H5 <=> C2H6-2 in R_Recombination/training
#  This reaction matched rate rule [C_rad/H2/Cs;H_rad]
#  family: R_Recombination

# Reaction 4
reaction('H(8) + C2H5(9) <=> C2H6(5)', [1.000000e+14, 0.0, 0.0],
         id='gas-4')
#  Reaction index: Chemkin #5; RMG #63
#  Template reaction: R_Recombination
#  Flux pairs: C2H5(9), C3H8(7); CH3(6), C3H8(7);
#  Matched reaction 10 CH3 + C2H5 <=> C3H8 in R_Recombination/training
#  This reaction matched rate rule [C_rad/H2/Cs;C_methyl]
#  family: R_Recombination

# Reaction 5
reaction('CH3(6) + C2H5(9) <=> C3H8(7)', [1.230000e+15, -0.562, 0.021],
         id='gas-5')
#  Reaction index: Chemkin #6; RMG #68
#  Template reaction: R_Addition_MultipleBond
#  Flux pairs: C2H4(11), C2H5(9); H(8), C2H5(9);
#  Matched reaction 2541 H + C2H4 <=> C2H5-2 in R_Addition_MultipleBond/training
#  This reaction matched rate rule [Cds-HH_Cds-HH;HJ]
#  family: R_Addition_MultipleBond

# Reaction 6
reaction('H(8) + C2H4(11) <=> C2H5(9)', [4.620000e+08, 1.64, 1.01],
         id='gas-6')
#  Reaction index: Chemkin #7; RMG #109
#  Template reaction: H_Abstraction
#  Flux pairs: H(8), H2(4); CH4(3), CH3(6);
#  Matched reaction 186 CH4b + H <=> CH3_p1 + H2_p in H_Abstraction/training
#  This reaction matched rate rule [C_methane;H_rad]
#  family: H_Abstraction

# Reaction 7
reaction('H(8) + CH4(3) <=> H2(4) + CH3(6)', [4.100000e+03, 3.156, 8.755],
         id='gas-7')
#  Reaction index: Chemkin #8; RMG #110
#  Template reaction: H_Abstraction
#  Flux pairs: C2H6(5), C2H5(9); CH3(6), CH4(3);
#  Matched reaction 215 C2H6 + CH3_r3 <=> C2H5b + CH4 in H_Abstraction/training
#  This reaction matched rate rule [C_methane;C_rad/H2/Cs\H3]
#  family: H_Abstraction

# Reaction 8
reaction('CH3(6) + C2H6(5) <=> CH4(3) + C2H5(9)', [3.500000e+01, 3.44, 10.384],
         id='gas-8')
#  Reaction index: Chemkin #9; RMG #113
#  Template reaction: Disproportionation
#  Flux pairs: CH3(6), CH4(3); C2H5(9), C2H4(11);
#  Matched reaction 5 CH3 + C2H5 <=> CH4 + C2H4 in Disproportionation/training
#  This reaction matched rate rule [C_methyl;Cmethyl_Csrad]
#  family: Disproportionation

# Reaction 9
reaction('CH3(6) + C2H5(9) <=> CH4(3) + C2H4(11)', [6.570000e+14, -0.68, 0.0],
         id='gas-9')
#  Reaction index: Chemkin #10; RMG #114
#  Template reaction: H_Abstraction
#  Flux pairs: C2H6(5), C2H5(9); H(8), H2(4);
#  Matched reaction 210 C2H6 + H <=> C2H5b + H2_p in H_Abstraction/training
#  This reaction matched rate rule [H2;C_rad/H2/Cs\H3]
#  family: H_Abstraction

# Reaction 10
reaction('H(8) + C2H6(5) <=> H2(4) + C2H5(9)', [1.150000e+08, 1.9, 7.53],
         id='gas-10')
#  Reaction index: Chemkin #11; RMG #117
#  Template reaction: Disproportionation
#  Flux pairs: H(8), H2(4); C2H5(9), C2H4(11);
#  Matched reaction 4 H + C2H5 <=> H2 + C2H4 in Disproportionation/training
#  This reaction matched rate rule [H_rad;Cmethyl_Csrad]
#  family: Disproportionation

# Reaction 11
reaction('H(8) + C2H5(9) <=> H2(4) + C2H4(11)', [1.083000e+13, 0.0, 0.0],
         id='gas-11')
#  Reaction index: Chemkin #12; RMG #120
#  Template reaction: Disproportionation
#  Flux pairs: C2H5(9), C2H6(5); C2H5(9), C2H4(11);
#  Matched reaction 6 C2H5 + C2H5-2 <=> C2H6 + C2H4 in Disproportionation/training
#  This reaction matched rate rule [C_rad/H2/Cs;Cmethyl_Csrad]
#  family: Disproportionation

# Reaction 12