units(length='cm', time='s', quantity='mol', act_energy='kcal/mol')

ideal_gas(name='gas',
          elements="H D T C Ci O Oi N Ne Ar He Si S Cl X",
          species="""n-heptane   Ar          He          Ne
                     N2          C2H4(2)     C4H8-1(3)   C4H8-2(4)
                     C4H6(7)     C3H6(24)    H2(47)      C4H8(99)
                     CH4(132)    C5H10(133)  C5H10(134)  C2H6(139)
                     C6H12(144)  C3H8(150)   C4H10(151)  C7H14(228)
                     C5H12(234)  C6H14(238)  C7H14(245)  C4H10(251)
                     C5H12(252)  C6H12(253)  C6H14(258)  C6H14(259)
                     C7H14(725)  C8H16(730)  C8H16(731)  C7H14(797)
                     C8H16(803)  C8H16(874)  C8H16(875)  C7H16(911)
                     C8H18(916)  C8H18(917)  C8H18(956)  C8H18(957)
                     S(978)      S(979)      C6H14(992)  C8H18(999)
                     S(1000)     S(1042)     S(1043)     S(1065)
                     S(1066)     S(1068)     S(1083)     S(1090)
                     S(1131)     S(1136)     S(1158)     S(1160)
                     S(1168)     S(1169)     S(1177)     S(1183)
                     S(1207)     S(1209)     S(1225)     S(1231)
                     S(1252)     S(1253)     S(1255)     S(1257)
                     S(1260)     S(1261)     S(1262)     S(1276)
                     S(1277)     S(1291)     S(1306)     S(1319)
                     S(1320)     S(1352)     S(1383)     S(1384)
                     S(1765)     S(1788)     S(1791)     S(1803)
                     S(1847)     S(1888)     S(2077)     S(2078)
                     S(2080)     S(2084)     S(2085)     S(2086)
                     S(2087)     S(2117)     S(2120)     S(2122)
                     S(2124)     S(2146)     S(2147)     S(2215)
                     S(2217)     S(2219)     S(2478)     S(2484)
                     S(2485)     S(2527)""",
          reactions='gas-*',
          initial_state=state(temperature=300.0, pressure=OneAtm))

ideal_interface(name='surface1',
                elements="H D T C Ci O Oi N Ne Ar He Si S Cl X",
                species="""X(1)        HX(5)       C2H3X(27)   allylX(28)
                          CH3X(29)    C2H5X(30)   C4H7X(31)   C4H7X(32)
                          C4H7X(33)   C4H7X(34)   C3H5X(35)   C4H9X(44)
                          C4H9X(45)   C6H11X(50)  C6H11X(51)  C6H11X(52)
                          C6H11X(65)  C4H7X(74)   C3H5X(93)   C4H9X(112)
                          C4H9X(113)  SX(114)     C3H7X(128)  SX(129)
                          SX(130)     SX(131)     SX(137)     SX(138)
                          SX(140)     SX(141)     SX(142)     SX(148)
                          SX(149)     C3H7X(199)  C5H9X(200)  C5H9X(201)
                          SX(214)     SX(223)     SX(224)     SX(225)
                          SX(226)     SX(232)     SX(233)     SX(236)
                          SX(237)     SX(240)     SX(241)     SX(242)
                          SX(243)     SX(249)     SX(250)     SX(256)
                          SX(257)     C4H5X(263)  C4H5X(264)  C5H9X(287)
                          SX(288)     C6H9X(307)  C5H9X(354)  C5H9X(355)
                          SX(373)     SX(382)     SX(383)     SX(384)
                          SX(385)     SX(417)     SX(418)     SX(427)
                          SX(428)     SX(429)     C6H9X(441)  C6H9X(472)
                          C6H9X(507)  C6H9X(508)  C6H9X(509)  C6H9X(606)
                          C5H9X(679)  SX(897)     SX(900)     SX(914)
                          SX(915)     SX(940)     SX(954)     SX(955)
                          SX(981)     SX(997)     SX(998)     SX(1026)
                          SX(1040)    SX(1041)    SX(1071)    SX(1088)
                          SX(1089)    SX(1120)    SX(1134)    SX(1135)
                          SX(1164)    SX(1181)    SX(1182)    SX(1214)
                          SX(1229)    SX(1230)    SX(1263)    SX(1268)
                          SX(1278)    SX(1292)    SX(1295)    SX(1297)
                          SX(1313)    SX(1335)    SX(1341)    SX(1365)
                          SX(1373)    SX(1374)    SX(1385)    SX(1395)
                          SX(1402)    SX(1403)    SX(1404)    SX(1428)
                          SX(1477)    SX(1481)    SX(1502)    SX(1573)
                          SX(1629)    SX(1643)    SX(1691)    SX(1692)
                          SX(1715)    SX(1761)    SX(1762)    SX(1763)
                          SX(1764)    SX(1768)    SX(1769)    SX(1804)
                          SX(1805)    SX(1806)    SX(1808)    SX(1809)
                          SX(1839)    SX(1840)    SX(1841)    SX(1843)
                          SX(1844)    SX(1846)    SX(1877)    SX(1878)
                          SX(1883)    SX(1884)    SX(1887)    SX(1923)
                          SX(1924)    SX(1925)    SX(1926)    SX(1927)
                          SX(1928)    SX(1929)    SX(1930)    SX(1947)
                          SX(1952)    SX(1953)    SX(1958)    SX(1961)
                          SX(2130)    SX(2227)    SX(2274)    SX(2335)
                          SX(2395)    SX(2600)    SX(2710)    SX(2774)
                          SX(2843)    SX(3021)    SX(3584)    SX(3671)
                          SX(4056)    SX(4267)    SX(4321)    SX(4322)
                          SX(4346)    SX(4792)    SX(5080)    SX(5181)
                          SX(5301)    SX(5320)    SX(5370)    SX(5517)
                          SX(5572)    SX(5734)    SX(5753)    SX(5754)
                          SX(5918)    SX(5975)    SX(5976)    SX(6105)
                          SX(6106)    SX(6480)    SX(6610)    SX(6611)
                          SX(7082)""",
                site_density=2.72e-09,
                phases="gas",
          reactions='surface1-*',
                initial_state=state(temperature=300.0, pressure=OneAtm))

#-------------------------------------------------------------------------------
# Element data
#-------------------------------------------------------------------------------

element(symbol=u'X', atomic_mass=195.083)
element(symbol=u'Ci', atomic_mass=13.003)
element(symbol=u'D', atomic_mass=2.014)
element(symbol=u'Oi', atomic_mass=18.0)
element(symbol=u'T', atomic_mass=3.016)
#-------------------------------------------------------------------------------
# Species data
#-------------------------------------------------------------------------------

species(name=u'n-heptane',
        atoms='H:16 C:7',
        thermo=(NASA([100.00, 1262.73],
                     [-2.91681405E-03,  7.69373649E-02, -3.48025563E-05,
                       1.86095180E-09,  2.01573617E-12, -2.57829342E+04,
                       3.00312148E+01]),
                NASA([1262.73, 5000.00],
                     [ 1.38377915E+01,  4.85945016E-02, -1.95474548E-05,
                       3.52837178E-09, -2.39064676E-13, -3.05141556E+04,
                      -4.48642836E+01])))

species(name=u'Ar',
        atoms='Ar:1',
        thermo=(NASA([200.00, 1000.00],
                     [ 2.50000000E+00,  0.00000000E+00,  0.00000000E+00,
                       0.00000000E+00,  0.00000000E+00, -7.45375000E+02,
                       4.37967000E+00]),
                NASA([1000.00, 6000.00],
                     [ 2.50000000E+00,  0.00000000E+00,  0.00000000E+00,
                       0.00000000E+00,  0.00000000E+00, -7.45375000E+02,
                       4.37967000E+00])))

species(name=u'He',
        atoms='He:1',
        thermo=(NASA([200.00, 1000.00],
                     [ 2.50000000E+00,  0.00000000E+00,  0.00000000E+00,
                       0.00000000E+00,  0.00000000E+00, -7.45375000E+02,
                       9.28724000E-01]),
                NASA([1000.00, 6000.00],
                     [ 2.50000000E+00,  0.00000000E+00,  0.00000000E+00,
                       0.00000000E+00,  0.00000000E+00, -7.45375000E+02,
                       9.28724000E-01])))

species(name=u'Ne',
        atoms='Ne:1',
        thermo=(NASA([200.00, 1000.00],
                     [ 2.50000000E+00,  0.00000000E+00,  0.00000000E+00,
                       0.00000000E+00,  0.00000000E+00, -7.45375000E+02,
                       3.35532000E+00]),
                NASA([1000.00, 6000.00],
                     [ 2.50000000E+00,  0.00000000E+00,  0.00000000E+00,
                       0.00000000E+00,  0.00000000E+00, -7.45375000E+02,
                       3.35532000E+00])))

species(name=u'N2',
        atoms='N:2',
        thermo=(NASA([200.00, 1000.00],
                     [ 3.53101000E+00, -1.23661000E-04, -5.02999000E-07,
                       2.43531000E-09, -1.40881000E-12, -1.04698000E+03,
                       2.96747000E+00]),
                NASA([1000.00, 6000.00],
                     [ 2.95258000E+00,  1.39690000E-03, -4.92632000E-07,
                       7.86010000E-11, -4.60755000E-15, -9.23949000E+02,
                       5.87189000E+00])))

species(name=u'C2H4(2)',
        atoms='H:4 C:2',
        thermo=(NASA([100.00, 979.36],
                     [ 3.97471606E+00, -4.75844285E-03,  4.16783770E-05,
                      -4.51392516E-08,  1.54224761E-11,  4.91540746E+03,
                       3.62430844E+00]),
                NASA([979.36, 5000.00],
                     [ 3.55660610E+00,  1.10627464E-02, -4.17019079E-06,
                       7.85586770E-10, -5.70060829E-14,  4.32046489E+03,
                       2.17719479E+00])))

species(name=u'C4H8-1(3)',
        atoms='H:8 C:4',
        thermo=(NASA([100.00, 1007.28],
                     [ 2.58772906E+00,  2.32777969E-02,  1.93412349E-05,
                      -3.55496333E-08,  1.36906009E-11, -1.91872926E+03,
                       1.45750618E+01]),
                NASA([1007.28, 5000.00],
                     [ 7.20517168E+00,  2.36361568E-02, -9.03150028E-06,
                       1.65392666E-09, -1.16019260E-13, -3.79733937E+03,
                      -1.24426257E+01])))

species(name=u'C4H8-2(4)',
        atoms='H:8 C:4',
        thermo=(NASA([100.00, 1157.79],
                     [ 2.51998327E+00,  2.76812799E-02,  9.43783469E-07,
                      -1.25009101E-08,  4.67144666E-12, -3.34374767E+03,
                       1.30195623E+01]),
                NASA([1157.79, 5000.00],
                     [ 6.04225708E+00,  2.60072350E-02, -1.04843374E-05,
                       1.90880922E-09, -1.30600505E-13, -4.86276511E+03,
                      -7.52715109E+00])))

species(name=u'C4H6(7)',
        atoms='H:6 C:4',
        thermo=(NASA([100.00, 946.05],
                     [ 2.80599310E+00,  1.02584471E-02,  6.17260255E-05,
                      -9.01642687E-08,  3.59116961E-11,  1.16584972E+04,
                       1.20621434E+01]),
                NASA([946.05, 5000.00],
                     [ 1.24693720E+01,  1.00553901E-02, -2.41206872E-06,
                       4.57077303E-10, -3.93160571E-14,  8.01077795E+03,
                      -4.36374720E+01])))

species(name=u'C3H6(24)',
        atoms='H:6 C:3',
        thermo=(NASA([100.00, 983.75],
                     [ 3.31912102E+00,  8.17958674E-03,  3.34736123E-05,
                      -4.36193684E-08,  1.58213364E-11,  7.49325328E+02,
                       9.54025058E+00]),
                NASA([983.75, 5000.00],
                     [ 5.36755173E+00,  1.70743019E-02, -6.35107626E-06,
                       1.16619529E-09, -8.27620279E-14, -4.87138326E+02,
                      -4.54467529E+00])))

species(name=u'H2(47)',
        atoms='H:2',
        thermo=(NASA([100.00, 1959.08],
                     [ 3.43536412E+00,  2.12710353E-04, -2.78625043E-07,
                       3.40267167E-10, -7.76031998E-14, -1.03135984E+03,
                      -3.90841732E+00]),
                NASA([1959.08, 5000.00],
                     [ 2.78816583E+00,  5.87640942E-04,  1.59010417E-07,
                      -5.52739026E-11,  4.34310984E-15, -5.96144270E+02,
                       1.12732655E-01])))

species(name=u'C4H8(99)',
        atoms='H:8 C:4',
        thermo=(NASA([100.00, 1061.33],
                     [ 2.52504770E+00,  2.64752782E-02,  7.08359238E-06,
                      -2.07731462E-08,  8.00430055E-12, -4.02607130E+03,
                       1.28857274E+01]),
                NASA([1061.33, 5000.00],
                     [ 6.48672669E+00,  2.49943921E-02, -9.83283171E-06,
                       1.79343299E-09, -1.24008235E-13, -5.62452310E+03,
                      -1.00316397E+01])))

species(name=u'CH4(132)',
        atoms='H:4 C:1',
        thermo=(NASA([100.00, 1084.12],
                     [ 4.20541524E+00, -5.35557362E-03,  2.51123265E-05,
                      -2.13762843E-08,  5.97523937E-12, -1.01619433E+04,
                      -9.21279283E-01]),
                NASA([1084.12, 5000.00],
                     [ 9.08265721E-01,  1.14540858E-02, -4.57173828E-06,
                       8.29191671E-10, -5.66314895E-14, -9.71997444E+03,
                       1.39930944E+01])))

species(name=u'C5H10(133)',
        atoms='H:10 C:5',
        thermo=(NASA([100.00, 1883.68],
                     [ 2.29195787E+00,  4.21076449E-02, -1.49304794E-05,
                      -1.22102583E-10,  5.99441346E-13, -4.98138150E+03,
                       1.67887076E+01]),
                NASA([1883.68, 5000.00],
                     [ 1.47438472E+01,  2.72460315E-02, -1.23172689E-05,
                       2.21660273E-09, -1.44084857E-13, -1.17269008E+04,
                      -5.66226025E+01])))

species(name=u'C5H10(134)',
        atoms='H:10 C:5',
        thermo=(NASA([100.00, 960.03],
                     [ 1.92494941E+00,  3.23872757E-02,  3.28626489E-05,
                      -6.30221575E-08,  2.59714460E-11, -5.50776492E+03,
                       1.86664331E+01]),
                NASA([960.03, 5000.00],
                     [ 1.12167303E+01,  2.64314616E-02, -9.01591566E-06,
                       1.60298644E-09, -1.13436933E-13, -8.80144986E+03,
                      -3.36443365E+01])))

species(name=u'C2H6(139)',
        atoms='H:6 C:2',
        thermo=(NASA([100.00, 1012.42],
                     [ 3.72239291E+00,  1.65083841E-03,  3.44175530E-05,
                      -3.76858229E-08,  1.24450657E-11, -1.15575901E+04,
                       4.68247999E+00]),
                NASA([1012.42, 5000.00],
                     [ 2.82848257E+00,  1.73040568E-02, -6.73334245E-06,
                       1.23742024E-09, -8.65676410E-14, -1.19978080E+04,
                       5.93811707E+00])))

species(name=u'C6H12(144)',
        atoms='H:12 C:6',
        thermo=(NASA([100.00, 1018.92],
                     [ 1.21827324E+00,  4.88303598E-02,  8.49335826E-06,
                      -3.91899735E-08,  1.67107196E-11, -8.55522126E+03,
                       2.43074946E+01]),
                NASA([1018.92, 5000.00],
                     [ 1.16698119E+01,  3.59250755E-02, -1.39120664E-05,
                       2.55991991E-09, -1.79822160E-13, -1.21450086E+04,
                      -3.34751762E+01])))

species(name=u'C3H8(150)',
        atoms='H:8 C:3',
        thermo=(NASA([100.00, 989.99],
                     [ 3.06336167E+00,  1.29214561E-02,  3.47032808E-05,
                      -4.70946154E-08,  1.71384141E-11, -1.43905789E+04,
                       1.07835592E+01]),
                NASA([989.99, 5000.00],
                     [ 5.60440043E+00,  2.19528785E-02, -8.22080610E-06,
                       1.50103993E-09, -1.05635358E-13, -1.58394038E+04,
                      -6.22623300E+00])))

species(name=u'C4H10(151)',
        atoms='H:10 C:4',
        thermo=(NASA([100.00, 1147.60],
                     [ 2.16918413E+00,  3.43904632E-02, -1.61564236E-06,
                      -1.30726562E-08,  5.17350451E-12, -1.72505136E+04,
                       1.46546701E+01]),
                NASA([1147.60, 5000.00],
                     [ 6.78903089E+00,  3.03598162E-02, -1.21262050E-05,
                       2.19945025E-09, -1.50289312E-13, -1.91057969E+04,
                      -1.17329103E+01])))

species(name=u'C7H14(228)',
        atoms='H:14 C:7',
        thermo=(NASA([100.00, 1054.67],
                     [ 4.65448694E-01,  6.48479495E-02, -9.56906733E-06,
                      -2.58210160E-08,  1.23868753E-11, -1.13879550E+04,
                       2.92560896E+01]),
                NASA([1054.67, 5000.00],
                     [ 1.32840013E+01,  4.31737590E-02, -1.70613062E-05,
                       3.13615581E-09, -2.18574261E-13, -1.55902553E+04,
                      -4.03721053E+01])))

species(name=u'C5H12(234)',
        atoms='H:12 C:5',
        thermo=(NASA([100.00, 1083.72],
                     [ 1.61174582E+00,  4.32467983E-02,  5.74950528E-06,
                      -2.75134571E-08,  1.08080045E-11, -2.00565292E+04,
                       1.98944429E+01]),
                NASA([1083.72, 5000.00],
                     [ 8.53683820E+00,  3.80814435E-02, -1.53303035E-05,
                       2.81977580E-09, -1.95507768E-13, -2.27551513E+04,
                      -1.95975419E+01])))

species(name=u'C6H14(238)',
        atoms='H:14 C:6',
        thermo=(NASA([100.00, 1048.16],
                     [ 8.83603407E-01,  5.70449582E-02, -2.15511769E-06,
                      -2.85512365E-08,  1.26618641E-11, -2.27982664E+04,
                       2.50352381E+01]),
                NASA([1048.16, 5000.00],
                     [ 1.11354266E+01,  4.25244017E-02, -1.65829595E-05,
                       3.01864905E-09, -2.09013581E-13, -2.62988561E+04,
                      -3.13529752E+01])))

species(name=u'C7H14(245)',
        atoms='H:14 C:7',
        thermo=(NASA([100.00, 1018.80],
                     [ 5.34658699E-01,  6.16863006E-02,  2.61082972E-06,
                      -4.06982985E-08,  1.82079458E-11, -1.20736775E+04,
                       2.80326906E+01]),
                NASA([1018.80, 5000.00],
                     [ 1.38818176E+01,  4.18582790E-02, -1.61573466E-05,
                       2.96709975E-09, -2.08207129E-13, -1.64838867E+04,
                      -4.49052024E+01])))

species(name=u'C4H10(251)',
        atoms='H:10 C:4',
        thermo=(NASA([100.00, 987.08],
                     [ 2.18594095E+00,  3.04312883E-02,  1.83387931E-05,
                      -4.04090927E-08,  1.64481872E-11, -1.82080408E+04,
                       1.37947641E+01]),
                NASA([987.08, 5000.00],
                     [ 8.84811268E+00,  2.61183046E-02, -9.57929598E-06,
                       1.72895160E-09, -1.21006821E-13, -2.06283634E+04,
                      -2.38575760E+01])))

species(name=u'C5H12(252)',
        atoms='H:12 C:5',
        thermo=(NASA([100.00, 1035.89],
                     [ 1.72369892E+00,  4.01626686E-02,  1.63603121E-05,
                      -3.88326196E-08,  1.49780300E-11, -2.08560016E+04,
                       1.91510657E+01]),
                NASA([1035.89, 5000.00],
                     [ 7.87936773E+00,  3.91979316E-02, -1.52647178E-05,
                       2.77213157E-09, -1.91665486E-13, -2.33548825E+04,
                      -1.66693711E+01])))

species(name=u'C6H12(253)',
        atoms='H:12 C:6',
        thermo=(NASA([100.00, 727.96],
                     [ 9.39440133E-01,  7.36827282E-02, -7.88408848E-05,
                       6.61457863E-08, -2.57040766E-11, -8.86666114E+03,
                       2.10074400E+01]),
                NASA([727.96, 5000.00],
                     [ 3.15400112E+00,  5.47777314E-02, -2.60055290E-05,
                       5.04732853E-09, -3.55800709E-13, -9.01059211E+03,
                       1.22525714E+01])))

species(name=u'C6H14(258)',
        atoms='H:14 C:6',
        thermo=(NASA([100.00, 1002.79],
                     [ 9.62511884E-01,  5.35099673E-02,  1.32037900E-05,
                      -4.70268617E-08,  1.98557427E-11, -2.36936864E+04,
                       2.41377511E+01]),
                NASA([1002.79, 5000.00],
                     [ 1.14867705E+01,  4.22488291E-02, -1.59010927E-05,
                       2.87000033E-09, -1.99356317E-13, -2.73489440E+04,
                      -3.43661848E+01])))

species(name=u'C6H14(259)',
        atoms='H:14 C:6',
        thermo=(NASA([100.00, 979.30],
                     [ 1.15761484E+00,  4.88425073E-02,  2.64137737E-05,
                      -6.01104569E-08,  2.45806956E-11, -2.37935343E+04,
                       2.21623322E+01]),
                NASA([979.30, 5000.00],
                     [ 1.04141051E+01,  4.37548510E-02, -1.59118175E-05,
                       2.82122166E-09, -1.94532762E-13, -2.71755416E+04,
                      -3.03122062E+01])))

species(name=u'C7H14(725)',
        atoms='H:14 C:7',
        thermo=(NASA([100.00, 1054.67],
                     [ 4.65448694E-01,  6.48479495E-02, -9.56906733E-06,
                      -2.58210160E-08,  1.23868753E-11, -1.13879550E+04,
                       2.85629425E+01]),
                NASA([1054.67, 5000.00],
                     [ 1.32840013E+01,  4.31737590E-02, -1.70613062E-05,
                       3.13615581E-09, -2.18574261E-13, -1.55902553E+04,
                      -4.10652525E+01])))

species(name=u'C8H16(730)',
        atoms='H:16 C:8',
        thermo=(NASA([100.00, 1101.74],
                     [-3.02651568E-01,  8.10186813E-02, -2.80330966E-05,
                      -1.21354914E-08,  8.02001340E-12, -1.42199976E+04,
                       3.42611998E+01]),
                NASA([1101.74, 5000.00],
                     [ 1.51381607E+01,  5.00380884E-02, -1.99984150E-05,
                       3.66389588E-09, -2.53403166E-13, -1.91444395E+04,
                      -4.86355338E+01])))

species(name=u'C8H16(731)',
        atoms='H:16 C:8',
        thermo=(NASA([100.00, 1049.68],
                     [-2.19199190E-01,  7.77174799E-02, -1.55058502E-05,
                      -2.72491138E-08,  1.38455412E-11, -1.49063681E+04,
                       3.29849002E+01]),
                NASA([1049.68, 5000.00],
                     [ 1.54923169E+01,  4.91123511E-02, -1.93093384E-05,
                       3.54392556E-09, -2.47004466E-13, -1.99272835E+04,
                      -5.17807871E+01])))

species(name=u'C7H14(797)',
        atoms='H:14 C:7',
        thermo=(NASA([100.00, 1064.53],
                     [ 4.62611058E-01,  6.51511088E-02, -1.10907613E-05,
                      -2.36780577E-08,  1.14817237E-11, -1.11141761E+04,
                       2.92323618E+01]),
                NASA([1064.53, 5000.00],
                     [ 1.31480102E+01,  4.35198650E-02, -1.72954075E-05,
                       3.18164942E-09, -2.21522846E-13, -1.52901125E+04,
                      -3.96892243E+01])))

species(name=u'C8H16(803)',
        atoms='H:16 C:8',
        thermo=(NASA([100.00, 1116.01],
                     [-3.08523527E-01,  8.13491273E-02, -2.96096041E-05,
                      -9.98039775E-09,  7.13492483E-12, -1.39460760E+04,
                       3.42489145E+01]),
                NASA([1116.01, 5000.00],
                     [ 1.50739934E+01,  5.02709107E-02, -2.01707190E-05,
                       3.69538757E-09, -2.55226885E-13, -1.88775393E+04,
                      -4.83628559E+01])))

species(name=u'C8H16(874)',
        atoms='H:16 C:8',
        thermo=(NASA([100.00, 1101.74],
                     [-3.02651568E-01,  8.10186813E-02, -2.80330966E-05,
                      -1.21354914E-08,  8.02001340E-12, -1.42199976E+04,
                       3.42611998E+01]),
                NASA([1101.74, 5000.00],
                     [ 1.51381607E+01,  5.00380884E-02, -1.99984150E-05,
                       3.66389588E-09, -2.53403166E-13, -1.91444395E+04,
                      -4.86355338E+01])))

species(name=u'C8H16(875)',
        atoms='H:16 C:8',
        thermo=(NASA([100.00, 1049.68],
                     [-2.19199190E-01,  7.77174799E-02, -1.55058502E-05,
                      -2.72491138E-08,  1.38455412E-11, -1.49063681E+04,
                       3.29849002E+01]),
                NASA([1049.68, 5000.00],
                     [ 1.54923169E+01,  4.91123511E-02, -1.93093384E-05,
                       3.54392556E-09, -2.47004466E-13, -1.99272835E+04,
                      -5.17807871E+01])))

species(name=u'C7H16(911)',
        atoms='H:16 C:7',
        thermo=(NASA([100.00, 1120.69],
                     [ 1.06339491E-01,  7.34420479E-02, -2.20939297E-05,
                      -1.28197435E-08,  7.39373087E-12, -2.60680432E+04,
                       3.00410584E+01]),
                NASA([1120.69, 5000.00],
                     [ 1.31589528E+01,  4.92569317E-02, -1.97080319E-05,
                       3.59805544E-09, -2.47725029E-13, -3.04004633E+04,
                      -4.06941546E+01])))

species(name=u'C8H18(916)',
        atoms='H:18 C:8',
        thermo=(NASA([100.00, 1206.86],
                     [-6.89609402E-01,  8.98708288E-02, -4.11358366E-05,
                       1.16625302E-09,  3.08116522E-12, -2.88987652E+04,
                       3.44576804E+01]),
                NASA([1206.86, 5000.00],
                     [ 1.56711370E+01,  5.50966005E-02, -2.20915345E-05,
                       4.00127562E-09, -2.72607063E-13, -3.42643584E+04,
                      -5.34184695E+01])))

species(name=u'C8H18(917)',
        atoms='H:18 C:8',
        thermo=(NASA([100.00, 1103.64],
                     [-5.78595688E-01,  8.63233750E-02, -2.81114488E-05,
                      -1.40871769E-08,  8.76045900E-12, -2.95864558E+04,
                       3.37703392E+01]),
                NASA([1103.64, 5000.00],
                     [ 1.53084896E+01,  5.52866759E-02, -2.20051288E-05,
                       4.01682589E-09, -2.77031625E-13, -3.47097411E+04,
                      -5.17661085E+01])))

species(name=u'C8H18(956)',
        atoms='H:18 C:8',
        thermo=(NASA([100.00, 1950.39],
                     [-8.85253472E-01,  9.40525134E-02, -5.49401942E-05,
                       1.58319910E-08, -1.84186830E-12, -2.86089074E+04,
                       3.54764932E+01]),
                NASA([1950.39, 5000.00],
                     [ 2.30699897E+01,  4.49237816E-02, -1.71567286E-05,
                       2.91725571E-09, -1.86477663E-13, -3.79533974E+04,
                      -9.60967099E+01])))

species(name=u'C8H18(957)',
        atoms='H:18 C:8',
        thermo=(NASA([100.00, 1206.86],
                     [-6.89609402E-01,  8.98708288E-02, -4.11358366E-05,
                       1.16625302E-09,  3.08116522E-12, -2.93013403E+04,
                       3.44576804E+01]),
                NASA([1206.86, 5000.00],
                     [ 1.56711370E+01,  5.50966005E-02, -2.20915345E-05,
                       4.00127562E-09, -2.72607063E-13, -3.46669336E+04,
                      -5.34184695E+01])))

species(name=u'S(978)',
        atoms='H:22 C:10',
        thermo=(NASA([100.00, 1793.77],
                     [-2.19595354E+00,  1.21625503E-01, -7.49793829E-05,
                       2.32391144E-08, -2.93766241E-12, -3.45637326E+04,
                       4.50702418E+01]),
                NASA([1793.77, 5000.00],
                     [ 2.54706551E+01,  5.99302565E-02, -2.33878126E-05,
                       4.06464869E-09, -2.65277164E-13, -4.44891810E+04,
                      -1.04571130E+02])))

species(name=u'S(979)',
        atoms='H:22 C:10',
        thermo=(NASA([100.00, 1753.74],
                     [-1.87595607E+00,  1.20581277E-01, -7.39939940E-05,
                       2.28626031E-08, -2.90803314E-12, -3.42986299E+04,
                       4.34818026E+01]),
                NASA([1753.74, 5000.00],
                     [ 2.27562749E+01,  6.43989451E-02, -2.59402712E-05,
                       4.59541085E-09, -3.03992073E-13, -4.29383112E+04,
                      -8.91915753E+01])))

species(name=u'C6H14(992)',
        atoms='H:14 C:6',
        thermo=(NASA([100.00, 1237.11],
                     [ 9.36204265E-01,  5.80630250E-02, -1.05197660E-05,
                      -1.36320323E-08,  5.73438090E-12, -2.34249411E+04,
                       2.40002576E+01]),
                NASA([1237.11, 5000.00],
                     [ 1.03159905E+01,  4.66440696E-02, -1.96015321E-05,
                       3.61730433E-09, -2.48224262E-13, -2.71926741E+04,
                      -2.90957696E+01])))

species(name=u'C8H18(999)',
        atoms='H:18 C:8',
        thermo=(NASA([100.00, 1206.86],
                     [-6.89609402E-01,  8.98708288E-02, -4.11358366E-05,
                       1.16625302E-09,  3.08116522E-12, -2.84961900E+04,
                       3.44576804E+01]),
                NASA([1206.86, 5000.00],
                     [ 1.56711370E+01,  5.50966005E-02, -2.20915345E-05,
                       4.00127562E-09, -2.72607063E-13, -3.38617833E+04,
                      -5.34184695E+01])))

species(name=u'S(1000)',
        atoms='H:18 C:8',
        thermo=(NASA([100.00, 1103.64],
                     [-5.78595688E-01,  8.63233750E-02, -2.81114488E-05,
                      -1.40871769E-08,  8.76045900E-12, -2.91838807E+04,
                       3.30771920E+01]),
                NASA([1103.64, 5000.00],
                     [ 1.53084896E+01,  5.52866759E-02, -2.20051288E-05,
                       4.01682589E-09, -2.77031625E-13, -3.43071659E+04,
                      -5.24592556E+01])))

species(name=u'S(1042)',
        atoms='H:18 C:8',
        thermo=(NASA([100.00, 1206.86],
                     [-6.89609402E-01,  8.98708288E-02, -4.11358366E-05,
                       1.16625302E-09,  3.08116522E-12, -2.88987652E+04,
                       3.51508275E+01]),
                NASA([1206.86, 5000.00],
                     [ 1.56711370E+01,  5.50966005E-02, -2.20915345E-05,
                       4.00127562E-09, -2.72607063E-13, -3.42643584E+04,
                      -5.27253224E+01])))

species(name=u'S(1043)',
        atoms='H:18 C:8',
        thermo=(NASA([100.00, 1103.64],
                     [-5.78595688E-01,  8.63233750E-02, -2.81114488E-05,