units(length='cm', time='s', quantity='mol', act_energy='kcal/mol')

ideal_gas(name='gas',
          elements="H D T C Ci O Oi N Ne Ar He Si S Cl X",
          species="""n-heptane   Ar          He          Ne
                     N2          C2H4(2)     C4H8-1(3)   C4H8-2(4)
                     C4H10(61)   C6H12(81)   C4H8(86)    C6H12(136)
                     C6H12(187)  C6H12(349)  C6H12(350)""",
          reactions='gas-*',
          initial_state=state(temperature=300.0, pressure=OneAtm))

ideal_interface(name='surface1',
                elements="H D T C Ci O Oi N Ne Ar He Si S Cl X",
                species="""X(1)        HX(5)       C2H3X(27)   C2H5X(30)
                          C4H9X(44)   C4H9X(45)   C2H2X(49)   C6H13X(57)
                          C6H13X(58)  C4H9X(74)   C6H13X(77)  C4H9X(87)
                          SX(111)     SX(112)     SX(137)     SX(138)
                          SX(351)""",
                site_density=2.72e-09,
                phases="gas",
          reactions='surface1-*',
                initial_state=state(temperature=300.0, pressure=OneAtm))

#-------------------------------------------------------------------------------
# Element data
#-------------------------------------------------------------------------------

element(symbol=u'X', atomic_mass=195.083)
element(symbol=u'Ci', atomic_mass=13.003)
element(symbol=u'D', atomic_mass=2.014)
element(symbol=u'Oi', atomic_mass=18.0)
element(symbol=u'T', atomic_mass=3.016)
#-------------------------------------------------------------------------------
# Species data
#-------------------------------------------------------------------------------

species(name=u'n-heptane',
        atoms='H:16 C:7',
        thermo=(NASA([100.00, 1262.73],
                     [-2.91681405E-03,  7.69373649E-02, -3.48025563E-05,
                       1.86095180E-09,  2.01573617E-12, -2.57829342E+04,
                       3.00312148E+01]),
                NASA([1262.73, 5000.00],
                     [ 1.38377915E+01,  4.85945016E-02, -1.95474548E-05,
                       3.52837178E-09, -2.39064676E-13, -3.05141556E+04,
                      -4.48642836E+01])))

species(name=u'Ar',
        atoms='Ar:1',
        thermo=(NASA([200.00, 1000.00],
                     [ 2.50000000E+00,  0.00000000E+00,  0.00000000E+00,
                       0.00000000E+00,  0.00000000E+00, -7.45375000E+02,
                       4.37967000E+00]),
                NASA([1000.00, 6000.00],
                     [ 2.50000000E+00,  0.00000000E+00,  0.00000000E+00,
                       0.00000000E+00,  0.00000000E+00, -7.45375000E+02,
                       4.37967000E+00])))

species(name=u'He',
        atoms='He:1',
        thermo=(NASA([200.00, 1000.00],
                     [ 2.50000000E+00,  0.00000000E+00,  0.00000000E+00,
                       0.00000000E+00,  0.00000000E+00, -7.45375000E+02,
                       9.28724000E-01]),
                NASA([1000.00, 6000.00],
                     [ 2.50000000E+00,  0.00000000E+00,  0.00000000E+00,
                       0.00000000E+00,  0.00000000E+00, -7.45375000E+02,
                       9.28724000E-01])))

species(name=u'Ne',
        atoms='Ne:1',
        thermo=(NASA([200.00, 1000.00],
                     [ 2.50000000E+00,  0.00000000E+00,  0.00000000E+00,
                       0.00000000E+00,  0.00000000E+00, -7.45375000E+02,
                       3.35532000E+00]),
                NASA([1000.00, 6000.00],
                     [ 2.50000000E+00,  0.00000000E+00,  0.00000000E+00,
                       0.00000000E+00,  0.00000000E+00, -7.45375000E+02,
                       3.35532000E+00])))

species(name=u'N2',
        atoms='N:2',
        thermo=(NASA([200.00, 1000.00],
                     [ 3.53101000E+00, -1.23661000E-04, -5.02999000E-07,
                       2.43531000E-09, -1.40881000E-12, -1.04698000E+03,
                       2.96747000E+00]),
                NASA([1000.00, 6000.00],
                     [ 2.95258000E+00,  1.39690000E-03, -4.92632000E-07,
                       7.86010000E-11, -4.60755000E-15, -9.23949000E+02,
                       5.87189000E+00])))

species(name=u'C2H4(2)',
        atoms='H:4 C:2',
        thermo=(NASA([100.00, 979.36],
                     [ 3.97471606E+00, -4.75844285E-03,  4.16783770E-05,
                      -4.51392516E-08,  1.54224761E-11,  4.91540746E+03,
                       3.62430844E+00]),
                NASA([979.36, 5000.00],
                     [ 3.55660610E+00,  1.10627464E-02, -4.17019079E-06,
                       7.85586770E-10, -5.70060829E-14,  4.32046489E+03,
                       2.17719479E+00])))

species(name=u'C4H8-1(3)',
        atoms='H:8 C:4',
        thermo=(NASA([100.00, 1007.28],
                     [ 2.58772906E+00,  2.32777969E-02,  1.93412349E-05,
                      -3.55496333E-08,  1.36906009E-11, -1.91872926E+03,
                       1.45750618E+01]),
                NASA([1007.28, 5000.00],
                     [ 7.20517168E+00,  2.36361568E-02, -9.03150028E-06,
                       1.65392666E-09, -1.16019260E-13, -3.79733937E+03,
                      -1.24426257E+01])))

species(name=u'C4H8-2(4)',
        atoms='H:8 C:4',
        thermo=(NASA([100.00, 1157.79],
                     [ 2.51998327E+00,  2.76812799E-02,  9.43783469E-07,
                      -1.25009101E-08,  4.67144666E-12, -3.34374767E+03,
                       1.30195623E+01]),
                NASA([1157.79, 5000.00],
                     [ 6.04225708E+00,  2.60072350E-02, -1.04843374E-05,
                       1.90880922E-09, -1.30600505E-13, -4.86276511E+03,
                      -7.52715109E+00])))

species(name=u'C4H10(61)',
        atoms='H:10 C:4',
        thermo=(NASA([100.00, 1147.60],
                     [ 2.16918413E+00,  3.43904632E-02, -1.61564236E-06,
                      -1.30726562E-08,  5.17350451E-12, -1.72505136E+04,
                       1.46546701E+01]),
                NASA([1147.60, 5000.00],
                     [ 6.78903089E+00,  3.03598162E-02, -1.21262050E-05,
                       2.19945025E-09, -1.50289312E-13, -1.91057969E+04,
                      -1.17329103E+01])))

species(name=u'C6H12(81)',
        atoms='H:12 C:6',
        thermo=(NASA([100.00, 1018.92],
                     [ 1.21827324E+00,  4.88303598E-02,  8.49335826E-06,
                      -3.91899735E-08,  1.67107196E-11, -8.55522126E+03,
                       2.43074946E+01]),
                NASA([1018.92, 5000.00],
                     [ 1.16698119E+01,  3.59250755E-02, -1.39120664E-05,
                       2.55991991E-09, -1.79822160E-13, -1.21450086E+04,
                      -3.34751762E+01])))

species(name=u'C4H8(86)',
        atoms='H:8 C:4',
        thermo=(NASA([100.00, 1061.33],
                     [ 2.52504770E+00,  2.64752782E-02,  7.08359238E-06,
                      -2.07731462E-08,  8.00430055E-12, -4.02607130E+03,
                       1.28857274E+01]),
                NASA([1061.33, 5000.00],
                     [ 6.48672669E+00,  2.49943921E-02, -9.83283171E-06,
                       1.79343299E-09, -1.24008235E-13, -5.62452310E+03,
                      -1.00316397E+01])))

species(name=u'C6H12(136)',
        atoms='H:12 C:6',
        thermo=(NASA([100.00, 1917.57],
                     [ 2.29989638E+00,  4.93347109E-02, -1.39908418E-05,
                      -2.79410381E-09,  1.20747058E-12, -1.03230301E+04,
                       1.84311611E+01]),
                NASA([1917.57, 5000.00],
                     [ 1.85703860E+01,  3.37500613E-02, -1.61580314E-05,
                       2.95111967E-09, -1.92346931E-13, -1.99376584E+04,
                      -7.94569206E+01])))

species(name=u'C6H12(187)',
        atoms='H:12 C:6',
        thermo=(NASA([100.00, 1083.88],
                     [ 1.36789859E+00,  4.60332170E-02,  1.03872042E-05,
                      -3.61548644E-08,  1.41144370E-11, -9.21215455E+03,
                       2.36685346E+01]),
                NASA([1083.88, 5000.00],
                     [ 1.07762218E+01,  3.82405519E-02, -1.60946813E-05,
                       3.05489613E-09, -2.16276948E-13, -1.28334192E+04,
                      -2.97757608E+01])))

species(name=u'C6H12(349)',
        atoms='H:12 C:6',
        thermo=(NASA([100.00, 1698.33],
                     [ 1.59095742E+00,  5.26758494E-02, -1.83561979E-05,
                      -1.06676417E-09,  1.11255271E-12, -1.06220126E+04,
                       2.16531738E+01]),
                NASA([1698.33, 5000.00],
                     [ 1.44977568E+01,  3.62929517E-02, -1.62656052E-05,
                       2.97191363E-09, -1.97262818E-13, -1.70273370E+04,
                      -5.34016107E+01])))

species(name=u'C6H12(350)',
        atoms='H:12 C:6',
        thermo=(NASA([100.00, 3144.72],
                     [ 1.62486600E+00,  5.81706891E-02, -2.94074668E-05,
                       6.41453677E-09, -5.27511383E-13, -9.95070725E+03,
                       2.05730324E+01]),
                NASA([3144.72, 5000.00],
                     [ 2.63049846E+01,  2.09689465E-02, -8.89163385E-06,
                       1.47783715E-09, -8.83519412E-14, -2.26006402E+04,
                      -1.22203751E+02])))

species(name=u'X(1)',
        atoms='X:1',
        thermo=(NASA([100.00, 1554.80],
                     [ 7.10139498E-03, -4.25619522E-05,  8.98533016E-08,
                      -7.80193649E-11,  2.32465471E-14, -8.76101712E-01,
                      -3.11211229E-02]),
                NASA([1554.80, 5000.00],
                     [ 1.60299900E-01, -2.52235409E-04,  1.14181275E-07,
                      -1.21471653E-11,  3.85790025E-16, -7.08100885E+01,
                      -9.09527530E-01])))

species(name=u'HX(5)',
        atoms='H:1 X:1',
        thermo=(NASA([100.00, 952.91],
                     [-3.80965452E-01,  5.47228709E-03,  2.60912778E-06,
                      -9.64961980E-09,  4.63946753E-12, -1.23236701E+04,
                       1.01725550E+00]),
                NASA([952.91, 5000.00],
                     [ 2.80339655E+00, -5.41047017E-04,  4.99507978E-07,
                      -7.54963647E-11,  3.06772366E-15, -1.32644195E+04,
                      -1.59436787E+01])))

species(name=u'C2H3X(27)',
        atoms='H:3 C:2 X:1',
        thermo=(NASA([100.00, 928.62],
                     [ 3.83091018E+00, -8.76381562E-03,  6.97956896E-05,
                      -8.67969174E-08,  3.33218121E-11,  8.75012182E+02,
                      -1.81151753E+01]),
                NASA([928.62, 5000.00],
                     [ 8.78054562E+00,  1.92497720E-03,  8.25825014E-07,
                      -1.63749818E-10,  5.71728318E-15, -1.42439094E+03,
                      -4.90588618E+01])))

species(name=u'C2H5X(30)',
        atoms='H:5 C:2 X:1',
        thermo=(NASA([100.00, 803.81],
                     [-1.64625424E+00,  3.89626488E-02, -4.31128887E-05,
                       2.97076939E-08, -8.80222915E-12, -1.08291795E+04,
                       9.27323637E+00]),
                NASA([803.81, 5000.00],
                     [ 1.97598112E+00,  2.09382766E-02, -9.47916922E-06,
                       1.81392948E-09, -1.27206354E-13, -1.14115283E+04,
                      -7.41107956E+00])))

species(name=u'C4H9X(44)',
        atoms='H:9 C:4 X:1',
        thermo=(NASA([100.00, 1009.34],
                     [ 2.45382734E+00,  2.40994657E-02,  3.11010256E-05,
                      -4.95699577E-08,  1.85293661E-11, -1.49673097E+04,
                      -3.52847415E+00]),
                NASA([1009.34, 5000.00],
                     [ 7.52084135E+00,  2.82413531E-02, -1.10515535E-05,
                       2.04772333E-09, -1.44617914E-13, -1.72240312E+04,
                      -3.41331625E+01])))

species(name=u'C4H9X(45)',
        atoms='H:9 C:4 X:1',
        thermo=(NASA([100.00, 993.09],
                     [ 2.22649262E+00,  2.86530428E-02,  2.37814781E-05,
                      -4.60601877E-08,  1.82913065E-11, -1.36842948E+04,
                      -3.55141667E+00]),
                NASA([993.09, 5000.00],
                     [ 9.09063018E+00,  2.59568873E-02, -9.83403420E-06,
                       1.80637207E-09, -1.27731480E-13, -1.62780162E+04,
                      -4.28140480E+01])))

species(name=u'C2H2X(49)',
        atoms='H:2 C:2 X:1',
        thermo=(NASA([100.00, 1146.89],
                     [-1.35665997E+00,  2.85338019E-02, -3.11240758E-05,
                       1.70134067E-08, -3.63322671E-12, -3.79848280E+03,
                       3.79543665E+00]),
                NASA([1146.89, 5000.00],
                     [ 4.86807469E+00,  6.82428196E-03, -2.73110334E-06,
                       5.09415334E-10, -3.57467832E-14, -5.22632908E+03,
                      -2.70885611E+01])))

species(name=u'C6H13X(57)',
        atoms='H:13 C:6 X:1',
        thermo=(NASA([100.00, 1104.49],
                     [ 9.11736944E-01,  5.71186337E-02, -4.42064989E-06,
                      -2.31827364E-08,  9.89591048E-12, -2.00985879E+04,
                       4.93075254E+00]),
                NASA([1104.49, 5000.00],
                     [ 1.03931710E+01,  4.50091930E-02, -1.81629728E-05,
                       3.33345850E-09, -2.30373441E-13, -2.35488370E+04,
                      -4.78917391E+01])))

species(name=u'C6H13X(58)',
        atoms='H:13 C:6 X:1',
        thermo=(NASA([100.00, 1210.11],
                     [ 1.10826561E+00,  5.37308809E-02, -6.37927534E-07,
                      -2.23970084E-08,  8.32635868E-12, -2.13744403E+04,
                       5.70647071E+00]),
                NASA([1210.11, 5000.00],
                     [ 9.93913033E+00,  4.70609403E-02, -2.02853103E-05,
                       3.80581060E-09, -2.64092883E-13, -2.51606112E+04,
                      -4.53945281E+01])))

species(name=u'C4H9X(74)',
        atoms='H:9 C:4 X:1',
        thermo=(NASA([100.00, 971.26],
                     [ 2.18772440E+00,  2.80528478E-02,  2.95105136E-05,
                      -5.52418068E-08,  2.24096997E-11, -1.44614586E+04,
                      -4.38995955E+00]),
                NASA([971.26, 5000.00],
                     [ 1.02820894E+01,  2.36845782E-02, -8.47958205E-06,
                       1.54097166E-09, -1.09822739E-13, -1.74001191E+04,
                      -5.02382526E+01])))

species(name=u'C6H13X(77)',
        atoms='H:13 C:6 X:1',
        thermo=(NASA([100.00, 1140.27],
                     [ 9.41790380E-01,  5.59571281E-02, -1.23930313E-06,
                      -2.54812009E-08,  1.02020039E-11, -2.00796463E+04,
                       5.52625906E+00]),
                NASA([1140.27, 5000.00],
                     [ 1.08625288E+01,  4.53521038E-02, -1.91182014E-05,
                       3.58109265E-09, -2.49788598E-13, -2.39151424E+04,
                      -5.05354255E+01])))

species(name=u'C4H9X(87)',
        atoms='H:9 C:4 X:1',
        thermo=(NASA([100.00, 1080.66],
                     [ 2.49980748E+00,  2.56090126E-02,  2.02156117E-05,
                      -3.35382937E-08,  1.17334539E-11, -1.68101333E+04,
                      -5.31057752E+00]),
                NASA([1080.66, 5000.00],
                     [ 5.84130366E+00,  3.13511981E-02, -1.28929697E-05,
                       2.39456635E-09, -1.66872037E-13, -1.85898342E+04,
                      -2.65834022E+01])))

species(name=u'SX(111)',
        atoms='H:13 C:6 X:1',
        thermo=(NASA([100.00, 1190.74],
                     [ 9.15715884E-01,  5.89987432E-02, -1.57072852E-05,
                      -8.97686859E-09,  4.63872965E-12, -2.27370385E+04,
                       4.52509152E+00]),
                NASA([1190.74, 5000.00],
                     [ 9.59199608E+00,  4.53417993E-02, -1.80148838E-05,
                       3.23905365E-09, -2.19549599E-13, -2.59013418E+04,
                      -4.34584373E+01])))

species(name=u'SX(112)',
        atoms='H:13 C:6 X:1',
        thermo=(NASA([100.00, 987.93],
                     [ 1.09960574E+00,  5.19712872E-02,  1.64924284E-05,
                      -4.79170061E-08,  1.98360448E-11, -2.15096382E+04,
                       2.83826538E+00]),
                NASA([987.93, 5000.00],
                     [ 9.26901408E+00,  4.64879186E-02, -1.70779960E-05,
                       3.00861261E-09, -2.05239434E-13, -2.44703688E+04,
                      -4.32903127E+01])))

species(name=u'SX(137)',
        atoms='H:13 C:6 X:1',
        thermo=(NASA([100.00, 1015.12],
                     [ 1.10280936E+00,  4.95426978E-02,  2.18523095E-05,
                      -5.42471615E-08,  2.18084733E-11, -2.16417866E+04,
                       5.26544228E+00]),
                NASA([1015.12, 5000.00],
                     [ 1.13555645E+01,  4.22768170E-02, -1.63718977E-05,
                       3.01007661E-09, -2.11321878E-13, -2.54305499E+04,
                      -5.27608945E+01])))

species(name=u'SX(138)',
        atoms='H:13 C:6 X:1',
        thermo=(NASA([100.00, 1734.41],
                     [ 1.33802965E+00,  5.81661586E-02, -2.03392715E-05,
                      -3.72816826E-10,  9.58300285E-13, -2.24872911E+04,
                       2.78707728E+00]),
                NASA([1734.41, 5000.00],
                     [ 1.46208292E+01,  4.12590504E-02, -1.75885045E-05,
                       3.13290082E-09, -2.04741191E-13, -2.91594409E+04,
                      -7.45609929E+01])))

species(name=u'SX(351)',
        atoms='H:13 C:6 X:1',
        thermo=(NASA([100.00, 961.90],
                     [ 9.54196891E-01,  5.21918491E-02,  2.14839080E-05,
                      -6.06781528E-08,  2.63173898E-11, -2.03677880E+04,
                       5.71553892E+00]),
                NASA([961.90, 5000.00],
                     [ 1.28733912E+01,  3.85848255E-02, -1.33705506E-05,
                       2.34131754E-09, -1.61997459E-13, -2.43243287E+04,
                      -5.99717501E+01])))

#-------------------------------------------------------------------------------
# Reaction data
#-------------------------------------------------------------------------------



#  Reaction index: Chemkin #1; RMG #23
#  Template reaction: Surface_Adsorption_Dissociative
#  Flux pairs: C2H4(2), C2H3X(27); C2H4(2), HX(5);
#  Exact match found for rate rule [C-H;VacantSite1;VacantSite2]
#  Euclidian distance = 0
#  Multiplied by reaction path degeneracy 4.0
#  family: Surface_Adsorption_Dissociative

# surface1 Reaction 1
surface_reaction('C2H4(2) + X(1) + X(1) <=> HX(5) + C2H3X(27)', stick(1.240000e-04, 0.0, 6.4),
                 id='surface1-1')
#  Reaction index: Chemkin #2; RMG #48
#  Template reaction: Surface_Dissociation
#  Flux pairs: C2H3X(27), C2H2X(49); C2H3X(27), HX(5);
#  Exact match found for rate rule [Combined;VacantSite]
#  Euclidian distance = 0
#  family: Surface_Dissociation

# surface1 Reaction 2
surface_reaction('X(1) + C2H3X(27) <=> HX(5) + C2H2X(49)', [1.000000e+21, 0.0, 15.114],
                 id='surface1-2')
#  Reaction index: Chemkin #3; RMG #25
#  Template reaction: Surface_Adsorption_Dissociative
#  Flux pairs: C4H8-1(3), C2H5X(30); C4H8-1(3), C2H3X(27);
#  Exact match found for rate rule [C-C;VacantSite1;VacantSite2]
#  Euclidian distance = 0
#  family: Surface_Adsorption_Dissociative

# surface1 Reaction 3
surface_reaction('X(1) + X(1) + C4H8-1(3) <=> C2H3X(27) + C2H5X(30)', stick(6.595000e-04, 0.0, 9.0),
                 id='surface1-3')
#  Reaction index: Chemkin #4; RMG #37
#  Template reaction: Surface_EleyRideal_Addition_Multiple_Bond
#  Flux pairs: C2H4(2), C2H5X(30); HX(5), C2H5X(30);
#  Estimated using template [*H;R=R] for rate rule [*H;C=C]
#  Euclidian distance = 1.0
#  Multiplied by reaction path degeneracy 2.0
#  family: Surface_EleyRideal_Addition_Multiple_Bond

# surface1 Reaction 4
surface_reaction('C2H4(2) + HX(5) <=> C2H5X(30)', stick(1.000000e-01, 0.0, 16.41),
                 id='surface1-4')
#  Reaction index: Chemkin #5; RMG #65
#  Template reaction: Surface_Adsorption_Dissociative
#  Flux pairs: C4H10(61), C2H5X(30); C4H10(61), C2H5X(30);
#  Exact match found for rate rule [C-C;VacantSite1;VacantSite2]
#  Euclidian distance = 0
#  family: Surface_Adsorption_Dissociative

# surface1 Reaction 5
surface_reaction('X(1) + X(1) + C4H10(61) <=> C2H5X(30) + C2H5X(30)', stick(6.595000e-04, 0.0, 9.0),
                 id='surface1-5')
#  Reaction index: Chemkin #6; RMG #42
#  Template reaction: Surface_EleyRideal_Addition_Multiple_Bond
#  Flux pairs: C4H8-1(3), C4H9X(45); HX(5), C4H9X(45);
#  Exact match found for rate rule [*H;R=R]
#  Euclidian distance = 0
#  family: Surface_EleyRideal_Addition_Multiple_Bond

# surface1 Reaction 6
surface_reaction('HX(5) + C4H8-1(3) <=> C4H9X(45)', stick(5.000000e-02, 0.0, 16.41),
                 id='surface1-6')
#  Reaction index: Chemkin #7; RMG #57
#  Template reaction: Surface_EleyRideal_Addition_Multiple_Bond
#  Flux pairs: C2H4(2), C4H9X(45); C2H5X(30), C4H9X(45);
#  Estimated using template [*C2;R=R] for rate rule [*C2;C=C]
#  Euclidian distance = 1.0
#  Multiplied by reaction path degeneracy 2.0
#  family: Surface_EleyRideal_Addition_Multiple_Bond

# surface1 Reaction 7
surface_reaction('C2H4(2) + C2H5X(30) <=> C4H9X(45)', stick(1.000000e-01, 0.0, 16.41),
                 id='surface1-7')
#  Reaction index: Chemkin #8; RMG #70
#  Template reaction: Surface_Adsorption_Dissociative
#  Flux pairs: C4H10(61), C4H9X(45); C4H10(61), HX(5);
#  Exact match found for rate rule [CCCC-H;VacantSite1;VacantSite2]
#  Euclidian distance = 0
#  Multiplied by reaction path degeneracy 6.0
#  family: Surface_Adsorption_Dissociative

# surface1 Reaction 8
surface_reaction('X(1) + X(1) + C4H10(61) <=> HX(5) + C4H9X(45)', stick(9.000000e-03, 0.0, 3.1),
                 id='surface1-8')
#  Reaction index: Chemkin #9; RMG #41
#  Template reaction: Surface_EleyRideal_Addition_Multiple_Bond
#  Flux pairs: C4H8-1(3), C4H9X(44); HX(5), C4H9X(44);
#  Exact match found for rate rule [*H;R=R]
#  Euclidian distance = 0
#  family: Surface_EleyRideal_Addition_Multiple_Bond

# surface1 Reaction 9
surface_reaction('HX(5) + C4H8-1(3) <=> C4H9X(44)', stick(5.000000e-02, 0.0, 16.41),
                 id='surface1-9')
#  Reaction index: Chemkin #10; RMG #44
#  Template reaction: Surface_EleyRideal_Addition_Multiple_Bond
#  Flux pairs: C4H8-2(4), C4H9X(44); HX(5), C4H9X(44);
#  Exact match found for rate rule [*H;R=R]
#  Euclidian distance = 0
#  Multiplied by reaction path degeneracy 2.0
#  family: Surface_EleyRideal_Addition_Multiple_Bond

# surface1 Reaction 10
surface_reaction('HX(5) + C4H8-2(4) <=> C4H9X(44)', stick(1.000000e-01, 0.0, 16.41),
                 id='surface1-10')
#  Reaction index: Chemkin #11; RMG #69
#  Template reaction: Surface_Adsorption_Dissociative
#  Flux pairs: C4H10(61), C4H9X(44); C4H10(61), HX(5);
#  Exact match found for rate rule [C-H;VacantSite1;VacantSite2]
#  Euclidian distance = 0
#  Multiplied by reaction path degeneracy 4.0
#  family: Surface_Adsorption_Dissociative

# surface1 Reaction 11
surface_reaction('X(1) + X(1) + C4H10(61) <=> HX(5) + C4H9X(44)', stick(1.240000e-04, 0.0, 6.4),
                 id='surface1-11')
#  Reaction index: Chemkin #12; RMG #71
#  Template reaction: Surface_Migration
#  Flux pairs: C4H9X(45), C4H9X(44);
#  Exact match found for rate rule [*nbutane]
#  Euclidian distance = 0
#  Multiplied by reaction path degeneracy 2.0
#  family: Surface_Migration

# surface1 Reaction 12
surface_reaction('C4H9X(45) <=> C4H9X(44)', [1.467200e+13, 0.0, 14.18],
                 id='surface1-12')
#  Reaction index: Chemkin #13; RMG #85
#  Template reaction: Surface_Migration
#  Flux pairs: C4H9X(44), C4H9X(74);
#  Exact match found for rate rule [*C]
#  Euclidian distance = 0
#  family: Surface_Migration

# surface1 Reaction 13
surface_reaction('C4H9X(44) <=> C4H9X(74)', [7.336000e+12, 0.0, 14.18],
                 id='surface1-13')
#  Reaction index: Chemkin #14; RMG #102
#  Template reaction: Surface_EleyRideal_Addition_Multiple_Bond
#  Flux pairs: HX(5), C4H9X(74); C4H8(86), C4H9X(74);
#  Exact match found for rate rule [*H;R=R]
#  Euclidian distance = 0
#  family: Surface_EleyRideal_Addition_Multiple_Bond

# surface1 Reaction 14
surface_reaction('HX(5) + C4H8(86) <=> C4H9X(74)', stick(5.000000e-02, 0.0, 16.41),
                 id='surface1-14')
#  Reaction index: Chemkin #15; RMG #103
#  Template reaction: Surface_Migration
#  Flux pairs: C4H9X(74), C4H9X(87);
#  Exact match found for rate rule [*C]
#  Euclidian distance = 0
#  family: Surface_Migration

# surface1 Reaction 15
surface_reaction('C4H9X(74) <=> C4H9X(87)', [7.336000e+12, 0.0, 14.18],
                 id='surface1-15')
#  Reaction index: Chemkin #16; RMG #130
#  Template reaction: Surface_EleyRideal_Addition_Multiple_Bond
#  Flux pairs: C4H8(86), C4H9X(87); HX(5), C4H9X(87);
#  Exact match found for rate rule [*H;R=R]
#  Euclidian distance = 0
#  family: Surface_EleyRideal_Addition_Multiple_Bond

# surface1 Reaction 16
surface_reaction('HX(5) + C4H8(86) <=> C4H9X(87)', stick(5.000000e-02, 0.0, 16.41),
                 id='surface1-16')
#  Reaction index: Chemkin #17; RMG #60
#  Template reaction: Surface_EleyRideal_Addition_Multiple_Bond
#  Flux pairs: C4H8-2(4), C6H13X(58); C2H5X(30), C6H13X(58);
#  Exact match found for rate rule [*C2;R=R]
#  Euclidian distance = 0
#  Multiplied by reaction path degeneracy 2.0
#  family: Surface_EleyRideal_Addition_Multiple_Bond

# surface1 Reaction 17
surface_reaction('C4H8-2(4) + C2H5X(30) <=> C6H13X(58)', stick(1.000000e-01, 0.0, 16.41),
                 id='surface1-17')
#  Reaction index: Chemkin #18; RMG #160
#  Template reaction: Surface_EleyRideal_Addition_Multiple_Bond
#  Flux pairs: HX(5), C6H13X(58); C6H12(136), C6H13X(58);
#  Exact match found for rate rule [*H;R=R]
#  Euclidian distance = 0
#  family: Surface_EleyRideal_Addition_Multiple_Bond

# surface1 Reaction 18
surface_reaction('HX(5) + C6H12(136) <=> C6H13X(58)', stick(5.000000e-02, 0.0, 16.41),
                 id='surface1-18')
#  Reaction index: Chemkin #19; RMG #163
#  Template reaction: Surface_Migration
#  Flux pairs: C6H13X(58), SX(138);
#  Exact match found for rate rule [*C]
#  Euclidian distance = 0
#  family: Surface_Migration

# surface1 Reaction 19
surface_reaction('C6H13X(58) <=> SX(138)', [7.336000e+12, 0.0, 14.18],
                 id='surface1-19')
#  Reaction index: Chemkin #20; RMG #206
#  Template reaction: Surface_EleyRideal_Addition_Multiple_Bond
#  Flux pairs: C6H12(136), SX(138); HX(5), SX(138);
#  Exact match found for rate rule [*H;R=R]
#  Euclidian distance = 0
#  family: Surface_EleyRideal_Addition_Multiple_Bond

# surface1 Reaction 20
surface_reaction('HX(5) + C6H12(136) <=> SX(138)', stick(5.000000e-02, 0.0, 16.41),
                 id='surface1-20')
#  Reaction index: Chemkin #21; RMG #59
#  Template reaction: Surface_EleyRideal_Addition_Multiple_Bond
#  Flux pairs: C4H8-1(3), C6H13X(57); C2H5X(30), C6H13X(57);
#  Exact match found for rate rule [*C2;R=R]
#  Euclidian distance = 0
#  family: Surface_EleyRideal_Addition_Multiple_Bond

# surface1 Reaction 21
surface_reaction('C4H8-1(3) + C2H5X(30) <=> C6H13X(57)', stick(5.000000e-02, 0.0, 16.41),
                 id='surface1-21')
#  Reaction index: Chemkin #22; RMG #228
#  Template reaction: Surface_Migration
#  Flux pairs: SX(138), C6H13X(57);
#  Exact match found for rate rule [*C]
#  Euclidian distance = 0
#  Multiplied by reaction path degeneracy 3.0
#  family: Surface_Migration

# surface1 Reaction 22
surface_reaction('SX(138) <=> C6H13X(57)', [2.200800e+13, 0.0, 14.18],
                 id='surface1-22')
#  Reaction index: Chemkin #23; RMG #226
#  Template reaction: Surface_EleyRideal_Addition_Multiple_Bond
#  Flux pairs: HX(5), SX(138); C6H12(187), SX(138);
#  Exact match found for rate rule [*H;R=R]
#  Euclidian distance = 0
#  family: Surface_EleyRideal_Addition_Multiple_Bond

# surface1 Reaction 23
surface_reaction('HX(5) + C6H12(187) <=> SX(138)', stick(5.000000e-02, 0.0, 16.41),
                 id='surface1-23')
#  Reaction index: Chemkin #24; RMG #251
#  Template reaction: Surface_EleyRideal_Addition_Multiple_Bond
#  Flux pairs: HX(5), C6H13X(57); C6H12(187), C6H13X(57);
#  Exact match found for rate rule [*H;R=R]
#  Euclidian distance = 0
#  family: Surface_EleyRideal_Addition_Multiple_Bond

# surface1 Reaction 24
surface_reaction('HX(5) + C6H12(187) <=> C6H13X(57)', stick(5.000000e-02, 0.0, 16.41),
                 id='surface1-24')
#  Reaction index: Chemkin #25; RMG #134
#  Template reaction: Surface_EleyRideal_Addition_Multiple_Bond
#  Flux pairs: C4H8(86), SX(112); C2H5X(30), SX(112);
#  Exact match found for rate rule [*C2;R=R]
#  Euclidian distance = 0
#  family: Surface_EleyRideal_Addition_Multiple_Bond

# surface1 Reaction 25
surface_reaction('C2H5X(30) + C4H8(86) <=> SX(112)', stick(5.000000e-02, 0.0, 16.41),
                 id='surface1-25')
#  Reaction index: Chemkin #26; RMG #227
#  Template reaction: Surface_Migration
#  Flux pairs: SX(138), SX(112);
#  Exact match found for rate rule [*C]
#  Euclidian distance = 0
#  Multiplied by reaction path degeneracy 2.0
#  family: Surface_Migration

# surface1 Reaction 26
surface_reaction('SX(138) <=> SX(112)', [1.467200e+13, 0.0, 14.18],
                 id='surface1-26')
#  Reaction index: Chemkin #27; RMG #89
#  Template reaction: Surface_EleyRideal_Addition_Multiple_Bond
#  Flux pairs: C2H4(2), C6H13X(77); C4H9X(44), C6H13X(77);
#  Estimated using template [*C;R=R] for rate rule [*C;C=C]
#  Euclidian distance = 1.0
#  Multiplied by reaction path degeneracy 2.0
#  family: Surface_EleyRideal_Addition_Multiple_Bond

# surface1 Reaction 27
surface_reaction('C2H4(2) + C4H9X(44) <=> C6H13X(77)', stick(1.000000e-01, 0.0, 16.41),
                 id='surface1-27')
#  Reaction index: Chemkin #28; RMG #164
#  Template reaction: Surface_Migration
#  Flux pairs: C6H13X(58), C6H13X(77);
#  Exact match found for rate rule [*C]
#  Euclidian distance = 0
#  Multiplied by reaction path degeneracy 3.0