units(length='cm', time='s', quantity='mol', act_energy='kcal/mol')

ideal_gas(name='gas',
          elements="H D T C Ci O Oi N Ne Ar He Si S Cl X",
          species="""n-heptane   Ar          He          Ne
                     N2          C2H4(2)     C4H8-1(3)   C4H8-2(4)
                     C4H6(7)     C6H8(9)     C6H8(122)   C8H10(125)
                     C8H10(129)  C4H10(141)  C8H12(167)  C6H12(189)
                     C6H12(205)  C6H12(225)  S(403)      S(407)
                     C8H12(951)  S(1258)     S(1262)     S(1267)
                     S(1296)     S(1553)     S(1662)     S(1814)
                     S(1835)     S(2235)     S(2289)     S(2310)
                     S(2565)     S(2676)     S(3093)     S(3579)
                     S(3637)     S(3656)     S(3657)     S(3784)
                     S(3830)     S(4093)     S(4180)     S(4279)
                     S(4558)     S(4652)     S(4819)     S(5187)
                     S(5343)     S(5355)     S(5914)     S(6174)
                     S(6215)     S(6341)     S(6818)     S(6876)
                     S(7189)     S(7281)     S(7376)     S(7385)
                     S(7480)     S(7648)     S(7748)     S(7758)""",
          reactions='gas-*',
          initial_state=state(temperature=300.0, pressure=OneAtm))

ideal_interface(name='surface1',
                elements="H D T C Ci O Oi N Ne Ar He Si S Cl X",
                species="""X(1)        HX(5)       C2H3X(27)   CH3X(29)
                          C2H5X(30)   C4H7X(31)   C4H7X(32)   C4H7X(33)
                          C4H7X(34)   C4H7X(36)   C4H7X(37)   C4H9X(44)
                          C4H9X(45)   C4H5X(56)   C4H5X(57)   C6H9X(65)
                          C6H9X(66)   C6H9X(72)   C8H13X(75)  C8H11X(77)
                          C6H9X(97)   C6H9X(118)  SX(123)     SX(124)
                          SX(132)     SX(133)     SX(134)     SX(165)
                          SX(166)     C4H7X(177)  C6H9X(231)  C6H9X(271)
                          SX(273)     C6H9X(394)  SX(397)     SX(401)
                          SX(402)     SX(494)     SX(495)     SX(542)
                          SX(635)     SX(652)     SX(671)     SX(672)
                          SX(785)     SX(961)     SX(962)     C6H9X(963)
                          SX(984)     SX(985)     SX(986)     SX(988)
                          SX(1066)    SX(1151)    SX(1157)    SX(1158)
                          SX(1187)    SX(1252)    SX(1257)    SX(1290)
                          SX(1292)    SX(1410)    SX(1444)    SX(1445)
                          SX(1492)    SX(1527)    SX(1528)    SX(1530)
                          SX(1547)    SX(1556)    SX(1594)    SX(1595)
                          SX(1596)    SX(1597)    SX(1598)    SX(1599)
                          SX(1616)    SX(1664)    SX(1713)    SX(1795)
                          SX(1817)    SX(1867)    SX(1868)    SX(1869)
                          SX(1870)    SX(1947)    SX(1999)    SX(2000)
                          SX(2001)    SX(2002)    SX(2003)    SX(2004)
                          SX(2098)    SX(2116)    SX(2117)    SX(2118)
                          SX(2139)    SX(2140)    SX(2141)    SX(2195)
                          SX(2198)    SX(2292)    SX(2346)    SX(2347)
                          SX(2348)    SX(2349)    SX(2383)    SX(2448)
                          SX(2466)    SX(2467)    SX(2469)    SX(2503)
                          SX(2517)    SX(2557)    SX(2560)    SX(2598)
                          SX(2620)    SX(2621)    SX(2972)    SX(2973)
                          SX(2974)    SX(2975)    SX(2994)    SX(3042)
                          SX(3068)    SX(3087)    SX(3158)    SX(3181)
                          SX(3182)    SX(3183)    SX(3224)    SX(3225)
                          SX(3284)    SX(3285)    SX(3286)    SX(3287)
                          SX(3427)    SX(3428)    SX(3488)    SX(3510)
                          SX(3511)    SX(3512)    SX(3533)    SX(3571)
                          SX(3572)    SX(3593)    SX(3633)    SX(3652)
                          SX(3691)    SX(3714)    SX(3715)    SX(3716)
                          SX(3736)    SX(3777)    SX(3780)    SX(3822)
                          SX(3823)    SX(3826)    SX(3949)    SX(3977)
                          SX(4001)    SX(4002)    SX(4003)    SX(4004)
                          SX(4025)    SX(4085)    SX(4089)    SX(4133)
                          SX(4172)    SX(4176)    SX(4254)    SX(4282)
                          SX(4324)    SX(4325)    SX(4326)    SX(4327)
                          SX(4328)    SX(4329)    SX(4364)    SX(4439)
                          SX(4507)    SX(4529)    SX(4551)    SX(4554)
                          SX(5158)    SX(5178)    SX(5182)    SX(5227)
                          SX(5264)    SX(5297)    SX(5306)    SX(5307)
                          SX(5314)    SX(5323)    SX(5324)    SX(5330)
                          SX(5340)    SX(5342)    SX(5408)    SX(5409)
                          SX(5445)    SX(5467)    SX(5792)    SX(5863)
                          SX(5963)    SX(5989)    SX(5990)    SX(5991)
                          SX(6119)    SX(6120)    SX(6153)    SX(6163)
                          SX(6164)    SX(6172)    SX(6173)    SX(6178)
                          SX(6189)    SX(6199)    SX(6288)    SX(6335)
                          SX(6336)    SX(6357)    SX(6426)    SX(6447)
                          SX(6477)    SX(6487)    SX(6488)    SX(6507)
                          SX(6577)    SX(6578)    SX(6808)    SX(6815)
                          SX(6817)    SX(6839)    SX(6856)    SX(6877)
                          SX(7172)    SX(7185)    SX(7187)    SX(7193)
                          SX(7194)    SX(7201)    SX(7208)    SX(7713)
                          SX(7721)    SX(7722)    SX(7727)    SX(7732)
                          SX(7733)    SX(7738)    SX(7742)    SX(7839)""",
                site_density=2.72e-09,
                phases="gas",
          reactions='surface1-*',
                initial_state=state(temperature=300.0, pressure=OneAtm))

#-------------------------------------------------------------------------------
# Element data
#-------------------------------------------------------------------------------

element(symbol=u'X', atomic_mass=195.083)
element(symbol=u'Ci', atomic_mass=13.003)
element(symbol=u'D', atomic_mass=2.014)
element(symbol=u'Oi', atomic_mass=18.0)
element(symbol=u'T', atomic_mass=3.016)
#-------------------------------------------------------------------------------
# Species data
#-------------------------------------------------------------------------------

species(name=u'n-heptane',
        atoms='H:16 C:7',
        thermo=(NASA([100.00, 1262.73],
                     [-2.91681405E-03,  7.69373649E-02, -3.48025563E-05,
                       1.86095180E-09,  2.01573617E-12, -2.57829342E+04,
                       3.00312148E+01]),
                NASA([1262.73, 5000.00],
                     [ 1.38377915E+01,  4.85945016E-02, -1.95474548E-05,
                       3.52837178E-09, -2.39064676E-13, -3.05141556E+04,
                      -4.48642836E+01])))

species(name=u'Ar',
        atoms='Ar:1',
        thermo=(NASA([200.00, 1000.00],
                     [ 2.50000000E+00,  0.00000000E+00,  0.00000000E+00,
                       0.00000000E+00,  0.00000000E+00, -7.45375000E+02,
                       4.37967000E+00]),
                NASA([1000.00, 6000.00],
                     [ 2.50000000E+00,  0.00000000E+00,  0.00000000E+00,
                       0.00000000E+00,  0.00000000E+00, -7.45375000E+02,
                       4.37967000E+00])))

species(name=u'He',
        atoms='He:1',
        thermo=(NASA([200.00, 1000.00],
                     [ 2.50000000E+00,  0.00000000E+00,  0.00000000E+00,
                       0.00000000E+00,  0.00000000E+00, -7.45375000E+02,
                       9.28724000E-01]),
                NASA([1000.00, 6000.00],
                     [ 2.50000000E+00,  0.00000000E+00,  0.00000000E+00,
                       0.00000000E+00,  0.00000000E+00, -7.45375000E+02,
                       9.28724000E-01])))

species(name=u'Ne',
        atoms='Ne:1',
        thermo=(NASA([200.00, 1000.00],
                     [ 2.50000000E+00,  0.00000000E+00,  0.00000000E+00,
                       0.00000000E+00,  0.00000000E+00, -7.45375000E+02,
                       3.35532000E+00]),
                NASA([1000.00, 6000.00],
                     [ 2.50000000E+00,  0.00000000E+00,  0.00000000E+00,
                       0.00000000E+00,  0.00000000E+00, -7.45375000E+02,
                       3.35532000E+00])))

species(name=u'N2',
        atoms='N:2',
        thermo=(NASA([200.00, 1000.00],
                     [ 3.53101000E+00, -1.23661000E-04, -5.02999000E-07,
                       2.43531000E-09, -1.40881000E-12, -1.04698000E+03,
                       2.96747000E+00]),
                NASA([1000.00, 6000.00],
                     [ 2.95258000E+00,  1.39690000E-03, -4.92632000E-07,
                       7.86010000E-11, -4.60755000E-15, -9.23949000E+02,
                       5.87189000E+00])))

species(name=u'C2H4(2)',
        atoms='H:4 C:2',
        thermo=(NASA([100.00, 979.36],
                     [ 3.97471606E+00, -4.75844285E-03,  4.16783770E-05,
                      -4.51392516E-08,  1.54224761E-11,  4.91540746E+03,
                       3.62430844E+00]),
                NASA([979.36, 5000.00],
                     [ 3.55660610E+00,  1.10627464E-02, -4.17019079E-06,
                       7.85586770E-10, -5.70060829E-14,  4.32046489E+03,
                       2.17719479E+00])))

species(name=u'C4H8-1(3)',
        atoms='H:8 C:4',
        thermo=(NASA([100.00, 1007.28],
                     [ 2.58772906E+00,  2.32777969E-02,  1.93412349E-05,
                      -3.55496333E-08,  1.36906009E-11, -1.91872926E+03,
                       1.45750618E+01]),
                NASA([1007.28, 5000.00],
                     [ 7.20517168E+00,  2.36361568E-02, -9.03150028E-06,
                       1.65392666E-09, -1.16019260E-13, -3.79733937E+03,
                      -1.24426257E+01])))

species(name=u'C4H8-2(4)',
        atoms='H:8 C:4',
        thermo=(NASA([100.00, 1157.79],
                     [ 2.51998327E+00,  2.76812799E-02,  9.43783469E-07,
                      -1.25009101E-08,  4.67144666E-12, -3.34374767E+03,
                       1.30195623E+01]),
                NASA([1157.79, 5000.00],
                     [ 6.04225708E+00,  2.60072350E-02, -1.04843374E-05,
                       1.90880922E-09, -1.30600505E-13, -4.86276511E+03,
                      -7.52715109E+00])))

species(name=u'C4H6(7)',
        atoms='H:6 C:4',
        thermo=(NASA([100.00, 946.05],
                     [ 2.80599310E+00,  1.02584471E-02,  6.17260255E-05,
                      -9.01642687E-08,  3.59116961E-11,  1.16584972E+04,
                       1.20621434E+01]),
                NASA([946.05, 5000.00],
                     [ 1.24693720E+01,  1.00553901E-02, -2.41206872E-06,
                       4.57077303E-10, -3.93160571E-14,  8.01077795E+03,
                      -4.36374720E+01])))

species(name=u'C6H8(9)',
        atoms='H:8 C:6',
        thermo=(NASA([100.00, 941.22],
                     [ 1.38427980E+00,  4.14411503E-02,  1.94287417E-05,
                      -6.16688700E-08,  2.86503633E-11,  1.76317461E+04,
                       1.93257509E+01]),
                NASA([941.22, 5000.00],
                     [ 1.69619680E+01,  1.57221707E-02, -4.10118367E-06,
                       6.95736344E-10, -5.26521484E-14,  1.29061672E+04,
                      -6.44097553E+01])))

species(name=u'C6H8(122)',
        atoms='H:8 C:6',
        thermo=(NASA([100.00, 972.94],
                     [ 1.82686070E+00,  3.47046353E-02,  2.41070171E-05,
                      -5.44847920E-08,  2.29388832E-11,  1.99100661E+04,
                       1.81393315E+01]),
                NASA([972.94, 5000.00],
                     [ 1.21686202E+01,  2.40472785E-02, -8.58151834E-06,
                       1.57034031E-09, -1.12795334E-13,  1.63897115E+04,
                      -3.92195169E+01])))

species(name=u'C8H10(125)',
        atoms='H:10 C:8',
        thermo=(NASA([100.00, 966.00],
                     [ 5.26364552E-01,  5.92493286E-02,  6.02658334E-06,
                      -5.32875938E-08,  2.55662369E-11,  2.61873255E+04,
                       2.61353490E+01]),
                NASA([966.00, 5000.00],
                     [ 1.80461436E+01,  2.79985777E-02, -9.56971683E-06,
                       1.72854036E-09, -1.24398543E-13,  2.08757672E+04,
                      -6.77541641E+01])))

species(name=u'C8H10(129)',
        atoms='H:10 C:8',
        thermo=(NASA([100.00, 1006.91],
                     [ 9.59099136E-01,  5.26052795E-02,  1.05118295E-05,
                      -4.60808495E-08,  1.99632153E-11,  2.84660811E+04,
                       2.42924801E+01]),
                NASA([1006.91, 5000.00],
                     [ 1.34171277E+01,  3.60526403E-02, -1.38971709E-05,
                       2.56761905E-09, -1.81631637E-13,  2.42875578E+04,
                      -4.41873377E+01])))

species(name=u'C4H10(141)',
        atoms='H:10 C:4',
        thermo=(NASA([100.00, 1147.60],
                     [ 2.16918413E+00,  3.43904632E-02, -1.61564236E-06,
                      -1.30726562E-08,  5.17350451E-12, -1.72505136E+04,
                       1.46546701E+01]),
                NASA([1147.60, 5000.00],
                     [ 6.78903089E+00,  3.03598162E-02, -1.21262050E-05,
                       2.19945025E-09, -1.50289312E-13, -1.91057969E+04,
                      -1.17329103E+01])))

species(name=u'C8H12(167)',
        atoms='H:12 C:8',
        thermo=(NASA([100.00, 1066.82],
                     [-6.90279206E-02,  7.77631354E-02, -4.25469002E-05,
                       2.07979121E-09,  4.19202863E-12,  1.30198536E+04,
                       2.96530167E+01]),
                NASA([1066.82, 5000.00],
                     [ 1.62725496E+01,  3.71185641E-02, -1.44020029E-05,
                       2.61623348E-09, -1.80996976E-13,  8.35933475E+03,
                      -5.57441245E+01])))

species(name=u'C6H12(189)',
        atoms='H:12 C:6',
        thermo=(NASA([100.00, 1083.88],
                     [ 1.36789859E+00,  4.60332170E-02,  1.03872042E-05,
                      -3.61548644E-08,  1.41144370E-11, -9.21215455E+03,
                       2.36685346E+01]),
                NASA([1083.88, 5000.00],
                     [ 1.07762218E+01,  3.82405519E-02, -1.60946813E-05,
                       3.05489613E-09, -2.16276948E-13, -1.28334192E+04,
                      -2.97757608E+01])))

species(name=u'C6H12(205)',
        atoms='H:12 C:6',
        thermo=(NASA([100.00, 1839.14],
                     [ 7.39766525E-01,  6.35836379E-02, -3.85035731E-05,
                       1.16726754E-08, -1.43915861E-12, -9.53996498E+03,
                       2.35193792E+01]),
                NASA([1839.14, 5000.00],
                     [ 1.56639911E+01,  3.11245214E-02, -1.20299805E-05,
                       2.07631491E-09, -1.34696441E-13, -1.50295162E+04,
                      -5.75746881E+01])))

species(name=u'C6H12(225)',
        atoms='H:12 C:6',
        thermo=(NASA([100.00, 3144.72],
                     [ 1.62486600E+00,  5.81706891E-02, -2.94074668E-05,
                       6.41453677E-09, -5.27511383E-13, -9.95070725E+03,
                       2.05730324E+01]),
                NASA([3144.72, 5000.00],
                     [ 2.63049846E+01,  2.09689465E-02, -8.89163385E-06,
                       1.47783715E-09, -8.83519412E-14, -2.26006402E+04,
                      -1.22203751E+02])))

species(name=u'S(403)',
        atoms='H:14 C:10',
        thermo=(NASA([100.00, 1023.31],
                     [-1.35330722E+00,  1.02145774E-01, -6.02126710E-05,
                       2.98654008E-09,  6.82391097E-12,  1.92963887E+04,
                       3.62027847E+01]),
                NASA([1023.31, 5000.00],
                     [ 2.19165271E+01,  4.14492753E-02, -1.56018190E-05,
                       2.82319586E-09, -1.96568943E-13,  1.29494494E+04,
                      -8.43388976E+01])))

species(name=u'S(407)',
        atoms='H:14 C:10',
        thermo=(NASA([100.00, 1021.59],
                     [-1.52382008E+00,  1.06261596E-01, -6.91259641E-05,
                       1.02481961E-08,  4.75055139E-12,  1.91139942E+04,
                       3.63023303E+01]),
                NASA([1021.59, 5000.00],
                     [ 2.26414205E+01,  4.05645199E-02, -1.51275253E-05,
                       2.72126045E-09, -1.88837979E-13,  1.26674225E+04,
                      -8.81835568E+01])))

species(name=u'C8H12(951)',
        atoms='H:12 C:8',
        thermo=(NASA([100.00, 996.08],
                     [-1.55054420E-01,  7.76017702E-02, -3.37454095E-05,
                      -1.34614252E-08,  1.13198940E-11,  8.83061944E+03,
                       2.79505218E+01]),
                NASA([996.08, 5000.00],
                     [ 1.82444884E+01,  3.35255263E-02, -1.22645795E-05,
                       2.20885887E-09, -1.54520851E-13,  3.68623383E+03,
                      -6.81680129E+01])))

species(name=u'S(1258)',
        atoms='H:14 C:10',
        thermo=(NASA([100.00, 1013.88],
                     [-1.03527521E+00,  8.99214218E-02, -2.04491278E-05,
                      -3.87098816E-08,  2.10701742E-11,  2.19500184E+04,
                       3.75590118E+01]),
                NASA([1013.88, 5000.00],
                     [ 2.29265009E+01,  4.12101070E-02, -1.61763087E-05,
                       3.05734712E-09, -2.20216432E-13,  1.47358972E+04,
                      -8.99879804E+01])))

species(name=u'S(1262)',
        atoms='H:14 C:10',
        thermo=(NASA([100.00, 1012.53],
                     [-1.20605840E+00,  9.40401291E-02, -2.93709084E-05,
                      -3.14398490E-08,  1.89945163E-11,  2.17676358E+04,
                       3.69663981E+01]),
                NASA([1012.53, 5000.00],
                     [ 2.36543438E+01,  4.03205348E-02, -1.56993177E-05,
                       2.95478832E-09, -2.12434612E-13,  1.44525644E+04,
                      -9.45425192E+01])))

species(name=u'S(1267)',
        atoms='H:16 C:10',
        thermo=(NASA([100.00, 1071.39],
                     [-1.10914770E+00,  9.36704260E-02, -2.78747777E-05,
                      -2.45222038E-08,  1.39995852E-11,  8.66711922E+03,
                       3.99126962E+01]),
                NASA([1071.39, 5000.00],
                     [ 2.02825904E+01,  5.13357424E-02, -2.11487795E-05,
                       3.98813808E-09, -2.82283614E-13,  1.92930479E+03,
                      -7.48176952E+01])))

species(name=u'S(1296)',
        atoms='H:12 C:8',
        thermo=(NASA([100.00, 1520.46],
                     [ 3.33256816E-01,  7.70233903E-02, -5.19909225E-05,
                       1.84125603E-08, -2.72977416E-12,  1.52768255E+04,
                       2.88681811E+01]),
                NASA([1520.46, 5000.00],
                     [ 1.38154091E+01,  4.15547541E-02, -1.69995468E-05,
                       3.07009936E-09, -2.07104980E-13,  1.11770134E+04,
                      -4.18245982E+01])))

species(name=u'S(1553)',
        atoms='H:14 C:10',
        thermo=(NASA([100.00, 998.69],
                     [-1.23627680E+00,  9.74725775E-02, -4.38771464E-05,
                      -1.60913124E-08,  1.40765054E-11,  1.88106092E+04,
                       3.74895673E+01]),
                NASA([998.69, 5000.00],
                     [ 2.26390707E+01,  3.99623688E-02, -1.47477851E-05,
                       2.67939624E-09, -1.88703415E-13,  1.21409436E+04,
                      -8.71805628E+01])))

species(name=u'S(1662)',
        atoms='H:12 C:6',
        thermo=(NASA([100.00, 1698.33],
                     [ 1.59095742E+00,  5.26758494E-02, -1.83561979E-05,
                      -1.06676417E-09,  1.11255271E-12, -1.06220126E+04,
                       2.16531738E+01]),
                NASA([1698.33, 5000.00],
                     [ 1.44977568E+01,  3.62929517E-02, -1.62656052E-05,
                       2.97191363E-09, -1.97262818E-13, -1.70273370E+04,
                      -5.34016107E+01])))

species(name=u'S(1814)',
        atoms='H:12 C:8',
        thermo=(NASA([100.00, 1018.55],
                     [ 6.01063084E-02,  7.29655393E-02, -2.58705028E-05,
                      -1.72899943E-08,  1.14983085E-11,  1.25335342E+04,
                       3.02021008E+01]),
                NASA([1018.55, 5000.00],
                     [ 1.68364676E+01,  3.58886254E-02, -1.36909925E-05,
                       2.50533844E-09, -1.75806316E-13,  7.62178202E+03,
                      -5.83776552E+01])))

species(name=u'S(1835)',
        atoms='H:12 C:8',
        thermo=(NASA([100.00, 996.08],
                     [-1.55054420E-01,  7.76017702E-02, -3.37454095E-05,
                      -1.34614252E-08,  1.13198940E-11,  8.83061944E+03,
                       2.79505218E+01]),
                NASA([996.08, 5000.00],
                     [ 1.82444884E+01,  3.35255263E-02, -1.22645795E-05,
                       2.20885887E-09, -1.54520851E-13,  3.68623383E+03,
                      -6.81680129E+01])))

species(name=u'S(2235)',
        atoms='H:12 C:6',
        thermo=(NASA([100.00, 1829.14],
                     [ 7.23497206E-01,  6.40962986E-02, -3.88937857E-05,
                       1.18285810E-08, -1.46479639E-12, -9.55473307E+03,
                       2.34752956E+01]),
                NASA([1829.14, 5000.00],
                     [ 1.55815550E+01,  3.16049972E-02, -1.22495396E-05,
                       2.11773097E-09, -1.37578189E-13, -1.49903266E+04,
                      -5.71784952E+01])))

species(name=u'S(2289)',
        atoms='H:12 C:8',
        thermo=(NASA([100.00, 1093.32],
                     [ 2.36637697E-01,  7.13806073E-02, -3.04205239E-05,
                      -5.26761999E-09,  5.54497945E-12,  1.11111992E+04,
                       2.69517569E+01]),
                NASA([1093.32, 5000.00],
                     [ 1.41535962E+01,  4.07049724E-02, -1.61040105E-05,
                       2.93544374E-09, -2.02595338E-13,  6.85832312E+03,
                      -4.69635767E+01])))

species(name=u'S(2310)',
        atoms='H:12 C:8',
        thermo=(NASA([100.00, 1093.32],
                     [ 2.36638241E-01,  7.13806010E-02, -3.04205030E-05,
                      -5.26764556E-09,  5.54498963E-12,  1.09350726E+04,
                       2.64146056E+01]),
                NASA([1093.32, 5000.00],
                     [ 1.41535930E+01,  4.07049777E-02, -1.61040135E-05,
                       2.93544444E-09, -2.02595395E-13,  6.68219791E+03,
                      -4.75007076E+01])))

species(name=u'S(2565)',
        atoms='H:16 C:10',
        thermo=(NASA([100.00, 1491.82],
                     [-8.46079990E-01,  1.03138428E-01, -7.03993165E-05,
                       2.52703084E-08, -3.81049672E-12,  8.26242415E+03,
                       3.78163004E+01]),
                NASA([1491.82, 5000.00],
                     [ 1.65993794E+01,  5.63624564E-02, -2.33672036E-05,
                       4.25268313E-09, -2.88377369E-13,  3.05728923E+03,
                      -5.33262125E+01])))

species(name=u'S(2676)',
        atoms='H:12 C:6',
        thermo=(NASA([100.00, 1917.57],
                     [ 2.29989638E+00,  4.93347109E-02, -1.39908418E-05,
                      -2.79410381E-09,  1.20747058E-12, -1.03230301E+04,
                       1.84311611E+01]),
                NASA([1917.57, 5000.00],
                     [ 1.85703860E+01,  3.37500613E-02, -1.61580314E-05,
                       2.95111967E-09, -1.92346931E-13, -1.99376584E+04,
                      -7.94569206E+01])))

species(name=u'S(3093)',
        atoms='H:14 C:10',
        thermo=(NASA([100.00, 982.27],
                     [-1.45085686E+00,  1.02094638E-01, -5.16647752E-05,
                      -1.24367298E-08,  1.40017017E-11,  1.51076750E+04,
                       3.52363581E+01]),
                NASA([982.27, 5000.00],
                     [ 2.40810751E+01,  3.75447994E-02, -1.32913090E-05,
                       2.37604589E-09, -1.66862341E-13,  8.19002490E+03,
                      -9.71643257E+01])))

species(name=u'S(3579)',
        atoms='H:16 C:10',
        thermo=(NASA([100.00, 1229.16],
                     [-1.23227976E+00,  1.00673635E-01, -5.88841439E-05,
                       1.32036496E-08,  9.09127158E-14,  4.10984197E+03,
                       3.69552522E+01]),
                NASA([1229.16, 5000.00],
                     [ 1.86490137E+01,  5.27948045E-02, -2.09816111E-05,
                       3.77914893E-09, -2.56565365E-13, -2.04822431E+03,
                      -6.82312293E+01])))

species(name=u'S(3637)',
        atoms='H:16 C:10',
        thermo=(NASA([100.00, 1076.17],
                     [-1.34079450E+00,  1.01591982E-01, -5.26377596E-05,
                      -1.20563239E-10,  6.22443573E-12,  5.52902372E+03,
                       3.99525482E+01]),
                NASA([1076.17, 5000.00],
                     [ 2.00842380E+01,  4.99345113E-02, -1.96309504E-05,
                       3.58896136E-09, -2.49002222E-13, -7.02436923E+02,
                      -7.25106132E+01])))

species(name=u'S(3656)',
        atoms='H:14 C:8',
        thermo=(NASA([100.00, 1474.90],
                     [-2.31526120E-01,  8.72378445E-02, -6.14237076E-05,
                       2.29177878E-08, -3.55917867E-12, -6.43120954E+03,
                       2.81547587E+01]),
                NASA([1474.90, 5000.00],
                     [ 1.55964562E+01,  4.43112931E-02, -1.77663233E-05,
                       3.18416127E-09, -2.14246112E-13, -1.11001152E+04,
                      -5.43565950E+01])))

species(name=u'S(3657)',
        atoms='H:16 C:10',
        thermo=(NASA([100.00, 1504.94],
                     [-1.56378471E+00,  1.09875547E-01, -8.03780694E-05,
                       3.06011901E-08, -4.75251565E-12,  3.56008290E+03,
                       3.86080002E+01]),
                NASA([1504.94, 5000.00],
                     [ 2.16723984E+01,  4.81156656E-02, -1.88207938E-05,
                       3.33215281E-09, -2.22585662E-13, -3.43371551E+03,
                      -8.29909656E+01])))

species(name=u'S(3784)',
        atoms='H:16 C:10',
        thermo=(NASA([100.00, 1202.34],
                     [-1.38171707E+00,  1.02527707E-01, -5.76139519E-05,
                       8.83189608E-09,  1.87836120E-12,  6.70045932E+03,
                       3.87474273E+01]),
                NASA([1202.34, 5000.00],
                     [ 2.05781044E+01,  5.14764910E-02, -2.13775472E-05,
                       3.96184350E-09, -2.74095202E-13, -1.70784484E+02,
                      -7.78571623E+01])))

species(name=u'S(3830)',
        atoms='H:16 C:10',
        thermo=(NASA([100.00, 1137.21],
                     [-1.39512879E+00,  1.02007951E-01, -5.24031564E-05,
                       1.24503760E-09,  4.93721364E-12,  8.17455261E+03,
                       3.92275140E+01]),
                NASA([1137.21, 5000.00],
                     [ 2.07766669E+01,  5.11854141E-02, -2.11971422E-05,
                       3.95557339E-09, -2.76182462E-13,  1.37525526E+03,
                      -7.83122207E+01])))

species(name=u'S(4093)',
        atoms='H:16 C:10',
        thermo=(NASA([100.00, 1202.34],
                     [-1.38171707E+00,  1.02527707E-01, -5.76139519E-05,
                       8.83189608E-09,  1.87836120E-12,  6.70045932E+03,
                       3.94405744E+01]),
                NASA([1202.34, 5000.00],
                     [ 2.05781044E+01,  5.14764910E-02, -2.13775472E-05,
                       3.96184350E-09, -2.74095202E-13, -1.70784484E+02,
                      -7.71640151E+01])))

species(name=u'S(4180)',
        atoms='H:16 C:10',
        thermo=(NASA([100.00, 1680.14],
                     [-1.37249859E+00,  1.03261852E-01, -6.83878578E-05,
                       2.31200202E-08, -3.18019028E-12,  9.16994128E+03,
                       4.02943491E+01]),
                NASA([1680.14, 5000.00],
                     [ 2.23386549E+01,  4.68111376E-02, -1.79893741E-05,
                       3.12218519E-09, -2.04554602E-13,  1.20237091E+03,
                      -8.64013128E+01])))

species(name=u'S(4279)',
        atoms='H:14 C:10',
        thermo=(NASA([100.00, 979.13],
                     [-1.61786644E+00,  1.06166096E-01, -6.04080465E-05,
                      -5.41801887E-09,  1.20423333E-11,  1.49251320E+04,
                       3.46303878E+01]),
                NASA([979.13, 5000.00],
                     [ 2.48037279E+01,  3.66649106E-02, -1.28202507E-05,
                       2.27494797E-09, -1.59205363E-13,  7.90859579E+03,
                      -1.01690172E+02])))

species(name=u'S(4558)',
        atoms='H:16 C:10',
        thermo=(NASA([100.00, 1202.34],
                     [-1.38171707E+00,  1.02527707E-01, -5.76139519E-05,
                       8.83189608E-09,  1.87836120E-12,  6.70045932E+03,
                       3.87474273E+01]),
                NASA([1202.34, 5000.00],
                     [ 2.05781044E+01,  5.14764910E-02, -2.13775472E-05,
                       3.96184350E-09, -2.74095202E-13, -1.70784484E+02,
                      -7.78571623E+01])))

species(name=u'S(4652)',
        atoms='H:16 C:10',
        thermo=(NASA([100.00, 1178.12],
                     [-1.29746542E+00,  1.00625721E-01, -5.31180578E-05,
                       4.64266568E-09,  3.24032984E-12,  8.15187392E+03,
                       3.94152309E+01]),
                NASA([1178.12, 5000.00],
                     [ 2.00746548E+01,  5.19561998E-02, -2.15736064E-05,
                       4.00777297E-09, -2.78088187E-13,  1.45789812E+03,
                      -7.42336784E+01])))

species(name=u'S(4819)',