units(length='cm', time='s', quantity='mol', act_energy='kcal/mol')

ideal_gas(name='gas',
          elements="H D T C Ci O Oi N Ne Ar He Si S Cl X",
          species="""n-heptane   Ar          He          Ne
                     N2          C2H4(2)     C4H8-1(3)   C4H8-2(4)
                     H2(68)      C4H8(121)   C2H6(131)   C6H12(136)
                     CH4(138)    C8H16(238)  C6H12(300)""",
          reactions='gas-*',
          initial_state=state(temperature=300.0, pressure=OneAtm))

ideal_interface(name='surface1',
                elements="H D T C Ci O Oi N Ne Ar He Si S Cl X",
                species="""X(1)        HX(5)       C2H3X(37)   allylX(38)
                          CH3X(39)    C2H5X(40)   C4H7X(41)   C4H7X(42)
                          C4H7X(43)   C4H7X(44)   C3H5X(45)   C2H2X(70)
                          C6H11X(71)  C6H11X(72)  C6H11X(73)  C6H11X(76)
                          C6H11X(86)  C8H15X(87)  C8H15X(88)  C8H15X(89)
                          C4H7X(95)   C6H11X(96)  C8H15X(97)  C8H15X(98)
                          C8H15X(99)  C3H5X(115)  SX(117)     SX(118)
                          SX(119)     SX(120)     C5H9X(148)  C5H9X(160)
                          SX(184)     SX(187)     SX(202)     SX(203)
                          SX(207)     SX(209)     SX(210)     SX(224)
                          SX(228)     SX(229)     SX(230)     SX(248)
                          SX(249)     SX(250)     SX(252)     SX(254)
                          SX(255)     SX(292)     C5H9X(294)  SX(296)
                          SX(317)     SX(321)     SX(343)     SX(347)
                          SX(368)     C5H9X(370)  SX(396)     C5H9X(398)
                          SX(400)     SX(428)     SX(430)     C5H9X(451)
                          SX(453)     SX(478)     SX(479)     SX(509)
                          SX(513)     SX(542)     SX(543)     SX(545)
                          SX(547)     SX(548)     C5H9X(607)  SX(609)
                          C5H9X(704)  SX(767)     SX(768)     SX(774)
                          C5H9X(835)  SX(837)     SX(870)     SX(873)
                          SX(908)     SX(909)     SX(910)     SX(950)
                          SX(951)     SX(954)     SX(996)     SX(997)
                          SX(1041)    SX(1042)    SX(1136)    SX(1139)
                          SX(1182)    SX(1226)    SX(1277)    SX(1279)
                          SX(1330)    SX(1331)    SX(1384)    SX(1388)
                          SX(1437)    SX(1490)    SX(1491)    SX(1492)
                          SX(1494)    SX(1601)    SX(1602)    SX(1603)
                          SX(1604)    SX(1608)    SX(1665)    SX(1666)
                          SX(1724)    SX(1785)    SX(1841)    SX(2012)
                          SX(2075)    SX(2135)    SX(2136)    SX(2195)
                          SX(2198)    SX(2263)    SX(2264)    SX(2266)
                          SX(2330)    SX(2538)    SX(2539)    SX(2610)
                          SX(2611)    SX(2612)    SX(2686)    SX(2687)
                          SX(2754)    SX(2755)    SX(2829)    SX(2907)
                          SX(2984)    SX(3141)    SX(3142)    SX(3145)
                          SX(3302)    SX(3304)    SX(3382)    SX(3455)
                          SX(3459)    SX(3530)    SX(3531)    SX(3613)
                          SX(3614)    SX(3851)    SX(3941)    SX(4033)
                          SX(4034)    SX(4307)    SX(4934)    SX(5136)
                          SX(5481)    SX(5668)    SX(5843)    SX(5846)
                          SX(5953)    SX(6303)    SX(6419)    SX(6984)
                          SX(7300)    SX(7417)    SX(7529)    SX(7530)
                          SX(7531)    SX(7643)    SX(7644)    SX(7645)
                          SX(7646)    SX(7647)    SX(7775)    SX(7776)
                          SX(7777)    SX(8276)    SX(8277)    SX(8545)
                          SX(8546)    SX(8547)    SX(8548)    SX(9212)
                          SX(9897)    SX(10043)   SX(10044)   SX(10045)
                          SX(10046)   SX(10190)   SX(10191)   SX(10192)
                          SX(10485)   SX(10486)   SX(10487)   SX(10488)
                          SX(11500)   SX(11639)   SX(11640)   SX(11774)
                          SX(11932)   SX(12090)   SX(12724)   SX(12725)
                          SX(13186)   SX(13357)   SX(13358)   SX(13523)
                          SX(13693)   SX(13694)   SX(13863)   SX(14204)
                          SX(15211)   SX(15384)   SX(15565)   SX(15566)
                          SX(16476)   SX(16884)   SX(16906)   SX(17390)
                          SX(17750)   SX(18088)   SX(18478)   SX(19068)
                          SX(20846)   SX(20847)   SX(21049)   SX(21050)
                          SX(21051)   SX(21835)   SX(21836)   SX(21837)
                          SX(21838)   SX(22051)   SX(22052)   SX(22053)
                          SX(22669)   SX(23105)   SX(23106)   SX(23324)
                          SX(23539)   SX(25070)   SX(25530)   SX(25531)
                          SX(25532)   SX(25991)   SX(25992)   SX(25993)
                          SX(25994)   SX(27935)   SX(29849)   SX(31645)
                          SX(31646)   SX(33254)   SX(33787)   SX(33788)
                          SX(34588)   SX(34589)   SX(34862)   SX(34863)
                          SX(35678)   SX(36232)   SX(36477)   SX(36716)
                          SX(36717)   SX(36993)   SX(37554)   SX(37555)""",
                site_density=2.72e-09,
                phases="gas",
          reactions='surface1-*',
                initial_state=state(temperature=300.0, pressure=OneAtm))

#-------------------------------------------------------------------------------
# Element data
#-------------------------------------------------------------------------------

element(symbol=u'X', atomic_mass=195.083)
element(symbol=u'Ci', atomic_mass=13.003)
element(symbol=u'D', atomic_mass=2.014)
element(symbol=u'Oi', atomic_mass=18.0)
element(symbol=u'T', atomic_mass=3.016)
#-------------------------------------------------------------------------------
# Species data
#-------------------------------------------------------------------------------

species(name=u'n-heptane',
        atoms='H:16 C:7',
        thermo=(NASA([100.00, 1262.73],
                     [-2.91681405E-03,  7.69373649E-02, -3.48025563E-05,
                       1.86095180E-09,  2.01573617E-12, -2.57829342E+04,
                       3.00312148E+01]),
                NASA([1262.73, 5000.00],
                     [ 1.38377915E+01,  4.85945016E-02, -1.95474548E-05,
                       3.52837178E-09, -2.39064676E-13, -3.05141556E+04,
                      -4.48642836E+01])))

species(name=u'Ar',
        atoms='Ar:1',
        thermo=(NASA([200.00, 1000.00],
                     [ 2.50000000E+00,  0.00000000E+00,  0.00000000E+00,
                       0.00000000E+00,  0.00000000E+00, -7.45375000E+02,
                       4.37967000E+00]),
                NASA([1000.00, 6000.00],
                     [ 2.50000000E+00,  0.00000000E+00,  0.00000000E+00,
                       0.00000000E+00,  0.00000000E+00, -7.45375000E+02,
                       4.37967000E+00])))

species(name=u'He',
        atoms='He:1',
        thermo=(NASA([200.00, 1000.00],
                     [ 2.50000000E+00,  0.00000000E+00,  0.00000000E+00,
                       0.00000000E+00,  0.00000000E+00, -7.45375000E+02,
                       9.28724000E-01]),
                NASA([1000.00, 6000.00],
                     [ 2.50000000E+00,  0.00000000E+00,  0.00000000E+00,
                       0.00000000E+00,  0.00000000E+00, -7.45375000E+02,
                       9.28724000E-01])))

species(name=u'Ne',
        atoms='Ne:1',
        thermo=(NASA([200.00, 1000.00],
                     [ 2.50000000E+00,  0.00000000E+00,  0.00000000E+00,
                       0.00000000E+00,  0.00000000E+00, -7.45375000E+02,
                       3.35532000E+00]),
                NASA([1000.00, 6000.00],
                     [ 2.50000000E+00,  0.00000000E+00,  0.00000000E+00,
                       0.00000000E+00,  0.00000000E+00, -7.45375000E+02,
                       3.35532000E+00])))

species(name=u'N2',
        atoms='N:2',
        thermo=(NASA([200.00, 1000.00],
                     [ 3.53101000E+00, -1.23661000E-04, -5.02999000E-07,
                       2.43531000E-09, -1.40881000E-12, -1.04698000E+03,
                       2.96747000E+00]),
                NASA([1000.00, 6000.00],
                     [ 2.95258000E+00,  1.39690000E-03, -4.92632000E-07,
                       7.86010000E-11, -4.60755000E-15, -9.23949000E+02,
                       5.87189000E+00])))

species(name=u'C2H4(2)',
        atoms='H:4 C:2',
        thermo=(NASA([100.00, 979.36],
                     [ 3.97471606E+00, -4.75844285E-03,  4.16783770E-05,
                      -4.51392516E-08,  1.54224761E-11,  4.91540746E+03,
                       3.62430844E+00]),
                NASA([979.36, 5000.00],
                     [ 3.55660610E+00,  1.10627464E-02, -4.17019079E-06,
                       7.85586770E-10, -5.70060829E-14,  4.32046489E+03,
                       2.17719479E+00])))

species(name=u'C4H8-1(3)',
        atoms='H:8 C:4',
        thermo=(NASA([100.00, 1007.28],
                     [ 2.58772906E+00,  2.32777969E-02,  1.93412349E-05,
                      -3.55496333E-08,  1.36906009E-11, -1.91872926E+03,
                       1.45750618E+01]),
                NASA([1007.28, 5000.00],
                     [ 7.20517168E+00,  2.36361568E-02, -9.03150028E-06,
                       1.65392666E-09, -1.16019260E-13, -3.79733937E+03,
                      -1.24426257E+01])))

species(name=u'C4H8-2(4)',
        atoms='H:8 C:4',
        thermo=(NASA([100.00, 1157.79],
                     [ 2.51998327E+00,  2.76812799E-02,  9.43783469E-07,
                      -1.25009101E-08,  4.67144666E-12, -3.34374767E+03,
                       1.30195623E+01]),
                NASA([1157.79, 5000.00],
                     [ 6.04225708E+00,  2.60072350E-02, -1.04843374E-05,
                       1.90880922E-09, -1.30600505E-13, -4.86276511E+03,
                      -7.52715109E+00])))

species(name=u'H2(68)',
        atoms='H:2',
        thermo=(NASA([100.00, 1959.08],
                     [ 3.43536412E+00,  2.12710353E-04, -2.78625043E-07,
                       3.40267167E-10, -7.76031998E-14, -1.03135984E+03,
                      -3.90841732E+00]),
                NASA([1959.08, 5000.00],
                     [ 2.78816583E+00,  5.87640942E-04,  1.59010417E-07,
                      -5.52739026E-11,  4.34310984E-15, -5.96144270E+02,
                       1.12732655E-01])))

species(name=u'C4H8(121)',
        atoms='H:8 C:4',
        thermo=(NASA([100.00, 1061.33],
                     [ 2.52504770E+00,  2.64752782E-02,  7.08359238E-06,
                      -2.07731462E-08,  8.00430055E-12, -4.02607130E+03,
                       1.28857274E+01]),
                NASA([1061.33, 5000.00],
                     [ 6.48672669E+00,  2.49943921E-02, -9.83283171E-06,
                       1.79343299E-09, -1.24008235E-13, -5.62452310E+03,
                      -1.00316397E+01])))

species(name=u'C2H6(131)',
        atoms='H:6 C:2',
        thermo=(NASA([100.00, 1012.42],
                     [ 3.72239291E+00,  1.65083841E-03,  3.44175530E-05,
                      -3.76858229E-08,  1.24450657E-11, -1.15575901E+04,
                       4.68247999E+00]),
                NASA([1012.42, 5000.00],
                     [ 2.82848257E+00,  1.73040568E-02, -6.73334245E-06,
                       1.23742024E-09, -8.65676410E-14, -1.19978080E+04,
                       5.93811707E+00])))

species(name=u'C6H12(136)',
        atoms='H:12 C:6',
        thermo=(NASA([100.00, 3144.72],
                     [ 1.62486600E+00,  5.81706891E-02, -2.94074668E-05,
                       6.41453677E-09, -5.27511383E-13, -9.95070725E+03,
                       2.05730324E+01]),
                NASA([3144.72, 5000.00],
                     [ 2.63049846E+01,  2.09689465E-02, -8.89163385E-06,
                       1.47783715E-09, -8.83519412E-14, -2.26006402E+04,
                      -1.22203751E+02])))

species(name=u'CH4(138)',
        atoms='H:4 C:1',
        thermo=(NASA([100.00, 1084.12],
                     [ 4.20541524E+00, -5.35557362E-03,  2.51123265E-05,
                      -2.13762843E-08,  5.97523937E-12, -1.01619433E+04,
                      -9.21279283E-01]),
                NASA([1084.12, 5000.00],
                     [ 9.08265721E-01,  1.14540858E-02, -4.57173828E-06,
                       8.29191671E-10, -5.66314895E-14, -9.71997444E+03,
                       1.39930944E+01])))

species(name=u'C8H16(238)',
        atoms='H:16 C:8',
        thermo=(NASA([100.00, 1183.23],
                     [-4.76602704E-01,  8.58608212E-02, -4.29084334E-05,
                       3.71299930E-09,  2.45711793E-12, -1.55486856E+04,
                       3.27101881E+01]),
                NASA([1183.23, 5000.00],
                     [ 1.56440324E+01,  4.94616644E-02, -1.97076940E-05,
                       3.56786142E-09, -2.43487100E-13, -2.06304476E+04,
                      -5.31283046E+01])))

species(name=u'C6H12(300)',
        atoms='H:12 C:6',
        thermo=(NASA([100.00, 1083.88],
                     [ 1.36789859E+00,  4.60332170E-02,  1.03872042E-05,
                      -3.61548644E-08,  1.41144370E-11, -9.87388749E+03,
                       2.31436772E+01]),
                NASA([1083.88, 5000.00],
                     [ 1.07762218E+01,  3.82405519E-02, -1.60946813E-05,
                       3.05489613E-09, -2.16276948E-13, -1.34951521E+04,
                      -3.03006182E+01])))

species(name=u'X(1)',
        atoms='X:1',
        thermo=(NASA([100.00, 1554.80],
                     [ 7.10139498E-03, -4.25619522E-05,  8.98533016E-08,
                      -7.80193649E-11,  2.32465471E-14, -8.76101712E-01,
                      -3.11211229E-02]),
                NASA([1554.80, 5000.00],
                     [ 1.60299900E-01, -2.52235409E-04,  1.14181275E-07,
                      -1.21471653E-11,  3.85790025E-16, -7.08100885E+01,
                      -9.09527530E-01])))

species(name=u'HX(5)',
        atoms='H:1 X:1',
        thermo=(NASA([100.00, 952.91],
                     [-3.80965452E-01,  5.47228709E-03,  2.60912778E-06,
                      -9.64961980E-09,  4.63946753E-12,  2.18196270E+03,
                       1.01725550E+00]),
                NASA([952.91, 5000.00],
                     [ 2.80339655E+00, -5.41047017E-04,  4.99507978E-07,
                      -7.54963647E-11,  3.06772366E-15,  1.24121328E+03,
                      -1.59436787E+01])))

species(name=u'C2H3X(37)',
        atoms='H:3 C:2 X:1',
        thermo=(NASA([100.00, 928.62],
                     [ 3.83091018E+00, -8.76381562E-03,  6.97956896E-05,
                      -8.67969174E-08,  3.33218121E-11, -2.02611438E+03,
                      -1.81151753E+01]),
                NASA([928.62, 5000.00],
                     [ 8.78054562E+00,  1.92497720E-03,  8.25825014E-07,
                      -1.63749818E-10,  5.71728318E-15, -4.32551751E+03,
                      -4.90588618E+01])))

species(name=u'allylX(38)',
        atoms='H:5 C:3 X:1',
        thermo=(NASA([100.00, 937.34],
                     [ 3.44148119E+00, -3.47700003E-03,  8.25933681E-05,
                      -1.05556823E-07,  4.04445066E-11, -5.56795251E+03,
                      -6.88846669E+00]),
                NASA([937.34, 5000.00],
                     [ 9.98148902E+00,  8.92268754E-03, -1.75442587E-06,
                       3.12285771E-10, -2.84156572E-14, -8.56475016E+03,
                      -4.74626902E+01])))

species(name=u'CH3X(39)',
        atoms='H:3 C:1 X:1',
        thermo=(NASA([100.00, 848.30],
                     [-1.21090496E+00,  2.92390681E-02, -4.49011079E-05,
                       3.86009808E-08, -1.30361041E-11, -9.74663102E+03,
                       6.80939750E+00]),
                NASA([848.30, 5000.00],
                     [ 1.62290877E+00,  1.12987268E-02, -5.08316908E-06,
                       9.46833581E-10, -6.42885536E-14, -1.00626959E+04,
                      -5.42501059E+00])))

species(name=u'C2H5X(40)',
        atoms='H:5 C:2 X:1',
        thermo=(NASA([100.00, 803.81],
                     [-1.64625424E+00,  3.89626488E-02, -4.31128887E-05,
                       2.97076939E-08, -8.80222915E-12, -1.37303060E+04,
                       9.27323637E+00]),
                NASA([803.81, 5000.00],
                     [ 1.97598112E+00,  2.09382766E-02, -9.47916922E-06,
                       1.81392948E-09, -1.27206354E-13, -1.43126548E+04,
                      -7.41107956E+00])))

species(name=u'C4H7X(41)',
        atoms='H:7 C:4 X:1',
        thermo=(NASA([100.00, 971.02],
                     [ 2.64365035E+00,  1.79007589E-02,  4.24443189E-05,
                      -6.44028479E-08,  2.49593993E-11, -9.52466195E+03,
                      -6.69991651E+00]),
                NASA([971.02, 5000.00],
                     [ 9.25871667E+00,  2.04064152E-02, -7.39143670E-06,
                       1.37021231E-09, -9.94133357E-14, -1.22121461E+04,
                      -4.56426102E+01])))

species(name=u'C4H7X(42)',
        atoms='H:7 C:4 X:1',
        thermo=(NASA([100.00, 986.67],
                     [ 2.45798205E+00,  2.47217336E-02,  2.01285964E-05,
                      -4.02735564E-08,  1.62485845E-11, -1.12247490E+03,
                      -5.12991781E+00]),
                NASA([986.67, 5000.00],
                     [ 8.87898065E+00,  2.09043993E-02, -7.83851223E-06,
                       1.44076477E-09, -1.02346878E-13, -3.47083101E+03,
                      -4.15007572E+01])))

species(name=u'C4H7X(43)',
        atoms='H:7 C:4 X:1',
        thermo=(NASA([100.00, 965.06],
                     [ 2.56877619E+00,  1.97500674E-02,  3.72961301E-05,
                      -6.04017092E-08,  2.39989018E-11, -9.79608281E+03,
                      -8.56564322E+00]),
                NASA([965.06, 5000.00],
                     [ 9.89778724E+00,  1.86142959E-02, -6.38884453E-06,
                       1.17309353E-09, -8.55406646E-14, -1.25723740E+04,
                      -5.07182348E+01])))

species(name=u'C4H7X(44)',
        atoms='H:7 C:4 X:1',
        thermo=(NASA([100.00, 949.35],
                     [ 2.54254539E+00,  1.77389010E-02,  4.93877612E-05,
                      -7.72878178E-08,  3.10660019E-11, -8.57044950E+03,
                      -8.46783968E+00]),
                NASA([949.35, 5000.00],
                     [ 1.15220223E+01,  1.60005944E-02, -4.89823595E-06,
                       8.83972924E-10, -6.63710570E-14, -1.19019818E+04,
                      -5.98888028E+01])))

species(name=u'C3H5X(45)',
        atoms='H:5 C:3 X:1',
        thermo=(NASA([100.00, 939.06],
                     [ 3.23683359E+00,  3.73132320E-03,  6.01028900E-05,
                      -8.16245569E-08,  3.18536011E-11, -5.83935598E+03,
                      -1.35295467E+01]),
                NASA([939.06, 5000.00],
                     [ 9.70183185E+00,  9.48309646E-03, -2.25953763E-06,
                       3.98431327E-10, -3.27118882E-14, -8.52138491E+03,
                      -5.21282869E+01])))

species(name=u'C2H2X(70)',
        atoms='H:2 C:2 X:1',
        thermo=(NASA([100.00, 1146.89],
                     [-1.35665997E+00,  2.85338019E-02, -3.11240758E-05,
                       1.70134067E-08, -3.63322671E-12, -9.60073593E+03,
                       3.79543665E+00]),
                NASA([1146.89, 5000.00],
                     [ 4.86807469E+00,  6.82428196E-03, -2.73110334E-06,
                       5.09415334E-10, -3.57467832E-14, -1.10285822E+04,
                      -2.70885611E+01])))

species(name=u'C6H11X(71)',
        atoms='H:11 C:6 X:1',
        thermo=(NASA([100.00, 1998.51],
                     [ 2.20078486E+00,  5.00544075E-02, -1.73491282E-05,
                      -1.15963565E-10,  6.32527699E-13, -8.69578042E+03,
                       7.72957811E-01]),
                NASA([1998.51, 5000.00],
                     [ 1.92113418E+01,  3.08514558E-02, -1.40771769E-05,
                       2.50902668E-09, -1.60746092E-13, -1.84592030E+04,
                      -1.00487504E+02])))

species(name=u'C6H11X(72)',
        atoms='H:11 C:6 X:1',
        thermo=(NASA([100.00, 968.49],
                     [ 1.21380653E+00,  4.74385684E-02,  1.70473783E-05,
                      -5.31710482E-08,  2.32909786E-11, -8.13014672E+03,
                       5.18267936E+00]),
                NASA([968.49, 5000.00],
                     [ 1.29066493E+01,  3.25069116E-02, -1.14963418E-05,
                       2.04429996E-09, -1.42970869E-13, -1.19596438E+04,
                      -5.89317378E+01])))

species(name=u'C6H11X(73)',
        atoms='H:11 C:6 X:1',
        thermo=(NASA([100.00, 1026.60],
                     [ 1.36763236E+00,  4.47159424E-02,  1.77339332E-05,
                      -4.72504607E-08,  1.90469768E-11, -9.40436120E+03,
                       5.40777780E+00]),
                NASA([1026.60, 5000.00],
                     [ 1.14239279E+01,  3.61439866E-02, -1.44679608E-05,
                       2.70636835E-09, -1.91760853E-13, -1.30821774E+04,
                      -5.12283432E+01])))

species(name=u'C6H11X(76)',
        atoms='H:11 C:6 X:1',
        thermo=(NASA([100.00, 1863.31],
                     [ 1.34655939E+00,  5.74341204E-02, -2.71927243E-05,
                       4.48519914E-09, -5.37965153E-14, -7.35728147E+03,
                       3.09134008E+00]),
                NASA([1863.31, 5000.00],
                     [ 1.84289329E+01,  3.06096878E-02, -1.35252085E-05,
                       2.43118882E-09, -1.58719503E-13, -1.54325719E+04,
                      -9.45393538E+01])))

species(name=u'C6H11X(86)',
        atoms='H:11 C:6 X:1',
        thermo=(NASA([100.00, 996.76],
                     [ 1.22387093E+00,  4.65813911E-02,  1.88286839E-05,
                      -5.31476442E-08,  2.23784278E-11, -8.11041601E+03,
                       5.15231381E+00]),
                NASA([996.76, 5000.00],
                     [ 1.30217585E+01,  3.34007173E-02, -1.27486852E-05,
                       2.35864380E-09, -1.67706149E-13, -1.21595223E+04,
                      -6.02408109E+01])))

species(name=u'C8H15X(87)',
        atoms='H:15 C:8 X:1',
        thermo=(NASA([100.00, 1211.65],
                     [-1.24179511E-01,  7.88586158E-02, -3.15658838E-05,
                      -3.00598166E-09,  3.75479332E-12, -1.50827019E+04,
                       1.52732492E+01]),
                NASA([1211.65, 5000.00],
                     [ 1.37112758E+01,  5.17432041E-02, -2.09736130E-05,
                       3.80776092E-09, -2.59461428E-13, -1.97977941E+04,
                      -5.97528593E+01])))

species(name=u'C8H15X(88)',
        atoms='H:15 C:8 X:1',
        thermo=(NASA([100.00, 994.85],
                     [-2.09636588E-01,  7.61893040E-02, -6.62762061E-06,
                      -4.13993950E-08,  2.03753360E-11, -1.40793460E+04,
                       1.45011449E+01]),
                NASA([994.85, 5000.00],
                     [ 1.65050247E+01,  4.60590351E-02, -1.70974140E-05,
                       3.07531984E-09, -2.13982995E-13, -1.92397566E+04,
                      -7.52720544E+01])))

species(name=u'C8H15X(89)',
        atoms='H:15 C:8 X:1',
        thermo=(NASA([100.00, 1053.90],
                     [-6.67997398E-02,  7.35642300E-02, -6.11524955E-06,
                      -3.55249391E-08,  1.62827865E-11, -1.53530610E+04,
                       1.47676206E+01]),
                NASA([1053.90, 5000.00],
                     [ 1.52504729E+01,  4.93261076E-02, -1.98629475E-05,
                       3.68995038E-09, -2.58915152E-13, -2.04641514E+04,
                      -6.88646459E+01])))

species(name=u'C4H7X(95)',
        atoms='H:7 C:4 X:1',
        thermo=(NASA([100.00, 947.75],
                     [ 2.86440387E+00,  8.12954614E-03,  7.59606536E-05,
                      -1.03618267E-07,  4.00694538E-11, -9.50581845E+03,
                      -2.40038485E+00]),
                NASA([947.75, 5000.00],
                     [ 1.10489656E+01,  1.63914163E-02, -4.86280875E-06,
                       8.89632629E-10, -6.85128174E-14, -1.29796346E+04,
                      -5.15890409E+01])))

species(name=u'C6H11X(96)',
        atoms='H:11 C:6 X:1',
        thermo=(NASA([100.00, 1049.69],
                     [ 1.36930266E+00,  4.38979115E-02,  2.01275568E-05,
                      -4.90824503E-08,  1.92320209E-11, -8.76767039E+03,
                       5.21493675E+00]),
                NASA([1049.69, 5000.00],
                     [ 1.20673516E+01,  3.58058064E-02, -1.50008038E-05,
                       2.88254699E-09, -2.07040682E-13, -1.28136942E+04,
                      -5.54902255E+01])))

species(name=u'C8H15X(97)',
        atoms='H:15 C:8 X:1',
        thermo=(NASA([100.00, 1502.90],
                     [-3.16252560E-01,  8.34021918E-02, -4.49964565E-05,
                       1.05605297E-08, -6.96875518E-13, -1.58177666E+04,
                       1.54096853E+01]),
                NASA([1502.90, 5000.00],
                     [ 1.69915250E+01,  4.72273607E-02, -1.87625786E-05,
                       3.30226172E-09, -2.17883187E-13, -2.21370846E+04,
                      -7.88574452E+01])))

species(name=u'C8H15X(98)',
        atoms='H:15 C:8 X:1',
        thermo=(NASA([100.00, 1005.13],
                     [-3.22055147E-01,  7.98124476E-02, -1.76103808E-05,
                      -2.96342396E-08,  1.61170749E-11, -1.49915374E+04,
                       1.43648918E+01]),
                NASA([1005.13, 5000.00],
                     [ 1.64299397E+01,  4.63990599E-02, -1.73701608E-05,
                       3.12011437E-09, -2.16101739E-13, -2.00388649E+04,
                      -7.48953353E+01])))

species(name=u'C8H15X(99)',
        atoms='H:15 C:8 X:1',
        thermo=(NASA([100.00, 1076.39],
                     [-1.86490911E-01,  7.72527624E-02, -1.72237273E-05,
                      -2.37578162E-08,  1.20984635E-11, -1.62649182E+04,
                       1.46587334E+01]),
                NASA([1076.39, 5000.00],
                     [ 1.53299553E+01,  4.94178646E-02, -1.99983944E-05,
                       3.70330996E-09, -2.58488056E-13, -2.13331305E+04,
                      -6.93675291E+01])))

species(name=u'C3H5X(115)',
        atoms='H:5 C:3 X:1',
        thermo=(NASA([100.00, 946.02],
                     [ 3.27693369E+00,  3.84253259E-03,  5.69854034E-05,
                      -7.61339325E-08,  2.92928923E-11, -7.62680537E+03,
                      -1.34283913E+01]),
                NASA([946.02, 5000.00],
                     [ 8.81692983E+00,  1.11131640E-02, -3.21294654E-06,
                       5.86623487E-10, -4.55861620E-14, -1.00485194E+04,
                      -4.71077607E+01])))

species(name=u'SX(117)',
        atoms='H:11 C:6 X:1',
        thermo=(NASA([100.00, 2550.55],
                     [ 1.24292200E+00,  6.01193450E-02, -3.21889901E-05,
                       7.64489414E-09, -6.96875236E-13, -9.48829144E+03,
                       2.83476651E+00]),
                NASA([2550.55, 5000.00],
                     [ 2.69737903E+01,  1.97651878E-02, -8.45594911E-06,
                       1.44140568E-09, -8.88104742E-14, -2.26136322E+04,
                      -1.45393387E+02])))

species(name=u'SX(118)',
        atoms='H:15 C:8 X:1',
        thermo=(NASA([100.00, 2011.20],
                     [-1.99637025E-02,  8.31399260E-02, -4.64483389E-05,
                       1.25744576E-08, -1.37868408E-12, -1.59708055E+04,
                       1.36566774E+01]),
                NASA([2011.20, 5000.00],
                     [ 1.92775482E+01,  4.47602298E-02, -1.78241616E-05,
                       3.08629811E-09, -1.99281126E-13, -2.37331175E+04,
                      -9.29266440E+01])))

species(name=u'SX(119)',
        atoms='H:15 C:8 X:1',
        thermo=(NASA([100.00, 1054.94],
                     [-4.23392011E-01,  8.42083258E-02, -3.46408927E-05,
                      -8.61268939E-09,  7.83957456E-12, -1.53558453E+04,
                       1.40280955E+01]),
                NASA([1054.94, 5000.00],
                     [ 1.55236848E+01,  4.83318345E-02, -1.85923644E-05,
                       3.34052728E-09, -2.29164850E-13, -2.00887917E+04,
                      -7.02454510E+01])))

species(name=u'SX(120)',
        atoms='H:15 C:8 X:1',
        thermo=(NASA([100.00, 1178.49],
                     [-3.01653383E-01,  8.17123878E-02, -3.40048005E-05,
                      -3.74233550E-09,  4.54207414E-12, -1.66284924E+04,
                       1.43780836E+01]),
                NASA([1178.49, 5000.00],
                     [ 1.51737761E+01,  5.01773664E-02, -2.05846798E-05,
                       3.78035919E-09, -2.60079358E-13, -2.17336886E+04,
                      -6.90079980E+01])))

species(name=u'C5H9X(148)',
        atoms='H:9 C:5 X:1',
        thermo=(NASA([100.00, 1681.96],
                     [ 1.99684493E+00,  4.32612165E-02, -1.57768502E-05,
                      -5.35440612E-10,  8.72932242E-13, -4.52357593E+03,
                      -1.27960632E+00]),
                NASA([1681.96, 5000.00],
                     [ 1.28154793E+01,  2.88816517E-02, -1.30742240E-05,
                       2.40505803E-09, -1.60419533E-13, -9.76819534E+03,
                      -6.38706853E+01])))

species(name=u'C5H9X(160)',
        atoms='H:9 C:5 X:1',
        thermo=(NASA([100.00, 1025.78],
                     [ 1.84470757E+00,  3.66286673E-02,  1.39293145E-05,
                      -3.81693509E-08,  1.54734779E-11, -6.01441515E+03,
                      -3.39363458E-01]),
                NASA([1025.78, 5000.00],