units(length='cm', time='s', quantity='mol', act_energy='kcal/mol')

ideal_gas(name='gas',
          elements="H D T C Ci O Oi N Ne Ar He Si S Cl X",
          species="""n-heptane   Ar          He          Ne
                     N2          C2H4(2)     C4H8-1(3)   C4H8-2(4)
                     C4H6(7)     C6H8(9)     C3H6(24)    H2(47)
                     C8H12(98)   C6H10(171)  C8H12(173)  C5H8c(230)
                     C7H10(234)  C6H10(245)  C5H8g(252)  C6H10(269)
                     S(315)      C9H14(320)  C9H14(321)  S(324)
                     C9H14(340)  CH4(349)    C7H12(351)  C5H10(356)
                     C4H8(357)   C2H6(360)   C8H12(522)  S(1328)
                     S(1457)     S(1551)     S(1552)     C3H8(1556)
                     S(1590)     S(1596)     S(1614)     S(1631)
                     S(1647)     S(1648)     S(1651)     S(1653)
                     S(1681)     S(1700)     S(1735)     S(1824)
                     S(2071)     S(2180)     S(2642)     S(2677)
                     S(2743)     S(2880)     S(3411)     S(3418)
                     S(3598)     S(3769)     S(3775)     S(3776)
                     S(3873)     S(3896)     S(4129)     S(4899)
                     S(5059)     S(10584)""",
          reactions='gas-*',
          initial_state=state(temperature=300.0, pressure=OneAtm))

ideal_interface(name='surface1',
                elements="H D T C Ci O Oi N Ne Ar He Si S Cl X",
                species="""X(1)        HX(5)       C2H3X(27)   allylX(28)
                          CH3X(29)    C2H5X(30)   C4H7X(31)   C4H7X(32)
                          C4H7X(33)   C4H7X(34)   C3H5X(35)   C4H7X(36)
                          C4H7X(37)   C4H9X(44)   C4H9X(45)   C6H11X(50)
                          C6H11X(51)  C6H11X(52)  C4H5X(56)   C4H5X(57)
                          C6H9X(65)   C6H9X(66)   C6H9X(72)   C8H11X(77)
                          C8H11X(78)  C6H9X(81)   C8H13X(82)  C8H13X(83)
                          C8H11X(85)  C8H11X(86)  C5H7X(91)   SX(110)
                          C6H9X(111)  SX(112)     SX(113)     SX(114)
                          SX(115)     SX(116)     C6H9X(184)  C3H5X(204)
                          C5H9X(206)  C5H9X(226)  SX(232)     C3H7X(276)
                          C3H7X(277)  C5H9X(278)  C5H9X(279)  SX(285)
                          SX(286)     SX(302)     SX(303)     C6H9X(309)
                          C5H9X(350)  SX(383)     SX(412)     SX(443)
                          C5H7X(512)  C5H7X(528)  C5H7X(529)  C5H7X(552)
                          C5H7X(553)  C5H7X(554)  C5H9X(567)  C5H9X(568)
                          SX(623)     SX(624)     SX(625)     C4H7X(700)
                          SX(701)     C6H9X(702)  C6H7X(797)  C6H7X(798)
                          C6H7X(799)  SX(812)     SX(836)     SX(837)
                          SX(854)     SX(919)     SX(931)     SX(932)
                          C6H7X(947)  SX(1016)    SX(1080)    SX(1081)
                          SX(1084)    SX(1124)    SX(1318)    SX(1320)
                          SX(1324)    SX(1325)    SX(1356)    SX(1441)
                          SX(1460)    SX(1461)    SX(1545)    SX(1577)
                          SX(1597)    SX(1598)    SX(1635)    SX(2087)
                          SX(2311)    SX(2399)    SX(2400)    SX(2401)
                          SX(2402)    SX(2403)    SX(2634)    SX(2737)
                          SX(2738)    SX(2776)    SX(2777)    SX(2831)
                          SX(2900)    SX(3024)    SX(3331)    SX(3332)
                          SX(3335)    SX(3336)    SX(3338)    SX(3407)
                          SX(3408)    SX(3557)    SX(3561)    SX(3563)
                          SX(3589)    SX(3609)    SX(3611)    SX(3634)
                          SX(3635)    SX(3636)    SX(3637)    SX(3638)
                          SX(3758)    SX(3759)    SX(3760)    SX(3761)
                          SX(3762)    SX(3772)    SX(3773)    SX(3941)
                          SX(4113)    SX(4115)    SX(4184)    SX(4185)
                          SX(4225)    SX(4241)    SX(4274)    SX(4295)
                          SX(4323)    SX(4324)    SX(4325)    SX(4489)
                          SX(4557)    SX(4559)    SX(4760)    SX(4806)
                          SX(4809)    SX(4811)    SX(4815)    SX(4817)
                          SX(4860)    SX(4923)    SX(5211)    SX(5212)
                          SX(5488)    SX(5489)    SX(5777)    SX(7148)
                          SX(7149)    SX(7150)    SX(7151)    SX(7376)
                          SX(7462)    SX(7463)    SX(7469)    SX(7470)
                          SX(7476)    SX(7480)    SX(7497)    SX(7538)
                          SX(7752)    SX(7899)    SX(7962)    SX(8177)
                          SX(8411)    SX(8416)    SX(8417)    SX(8418)
                          SX(8419)    SX(8424)    SX(8461)    SX(8473)
                          SX(8474)    SX(8482)    SX(8760)    SX(8823)
                          SX(9167)    SX(9243)    SX(9244)    SX(9491)
                          SX(9498)    SX(9644)    SX(9645)    SX(9656)
                          SX(9790)    SX(9791)    SX(9894)    SX(9912)
                          SX(9930)    SX(9931)    SX(10074)   SX(10076)
                          SX(10209)   SX(10210)   SX(10242)   SX(10243)
                          SX(10274)   SX(10305)   SX(10567)   SX(10968)
                          SX(10969)   SX(10970)   SX(11181)   SX(11270)
                          SX(11667)   SX(11669)   SX(11683)   SX(11693)
                          SX(11694)   SX(11932)   SX(11937)   SX(11938)
                          SX(11939)   SX(11944)   SX(11951)   SX(11966)
                          SX(11973)   SX(11976)   SX(12038)   SX(12155)
                          SX(12216)   SX(12224)   SX(12255)   SX(12262)
                          SX(12270)   SX(12283)   SX(12284)""",
                site_density=2.72e-09,
                phases="gas",
          reactions='surface1-*',
                initial_state=state(temperature=300.0, pressure=OneAtm))

#-------------------------------------------------------------------------------
# Element data
#-------------------------------------------------------------------------------

element(symbol=u'X', atomic_mass=195.083)
element(symbol=u'Ci', atomic_mass=13.003)
element(symbol=u'D', atomic_mass=2.014)
element(symbol=u'Oi', atomic_mass=18.0)
element(symbol=u'T', atomic_mass=3.016)
#-------------------------------------------------------------------------------
# Species data
#-------------------------------------------------------------------------------

species(name=u'n-heptane',
        atoms='H:16 C:7',
        thermo=(NASA([100.00, 1262.73],
                     [-2.91681405E-03,  7.69373649E-02, -3.48025563E-05,
                       1.86095180E-09,  2.01573617E-12, -2.57829342E+04,
                       3.00312148E+01]),
                NASA([1262.73, 5000.00],
                     [ 1.38377915E+01,  4.85945016E-02, -1.95474548E-05,
                       3.52837178E-09, -2.39064676E-13, -3.05141556E+04,
                      -4.48642836E+01])))

species(name=u'Ar',
        atoms='Ar:1',
        thermo=(NASA([200.00, 1000.00],
                     [ 2.50000000E+00,  0.00000000E+00,  0.00000000E+00,
                       0.00000000E+00,  0.00000000E+00, -7.45375000E+02,
                       4.37967000E+00]),
                NASA([1000.00, 6000.00],
                     [ 2.50000000E+00,  0.00000000E+00,  0.00000000E+00,
                       0.00000000E+00,  0.00000000E+00, -7.45375000E+02,
                       4.37967000E+00])))

species(name=u'He',
        atoms='He:1',
        thermo=(NASA([200.00, 1000.00],
                     [ 2.50000000E+00,  0.00000000E+00,  0.00000000E+00,
                       0.00000000E+00,  0.00000000E+00, -7.45375000E+02,
                       9.28724000E-01]),
                NASA([1000.00, 6000.00],
                     [ 2.50000000E+00,  0.00000000E+00,  0.00000000E+00,
                       0.00000000E+00,  0.00000000E+00, -7.45375000E+02,
                       9.28724000E-01])))

species(name=u'Ne',
        atoms='Ne:1',
        thermo=(NASA([200.00, 1000.00],
                     [ 2.50000000E+00,  0.00000000E+00,  0.00000000E+00,
                       0.00000000E+00,  0.00000000E+00, -7.45375000E+02,
                       3.35532000E+00]),
                NASA([1000.00, 6000.00],
                     [ 2.50000000E+00,  0.00000000E+00,  0.00000000E+00,
                       0.00000000E+00,  0.00000000E+00, -7.45375000E+02,
                       3.35532000E+00])))

species(name=u'N2',
        atoms='N:2',
        thermo=(NASA([200.00, 1000.00],
                     [ 3.53101000E+00, -1.23661000E-04, -5.02999000E-07,
                       2.43531000E-09, -1.40881000E-12, -1.04698000E+03,
                       2.96747000E+00]),
                NASA([1000.00, 6000.00],
                     [ 2.95258000E+00,  1.39690000E-03, -4.92632000E-07,
                       7.86010000E-11, -4.60755000E-15, -9.23949000E+02,
                       5.87189000E+00])))

species(name=u'C2H4(2)',
        atoms='H:4 C:2',
        thermo=(NASA([100.00, 979.36],
                     [ 3.97471606E+00, -4.75844285E-03,  4.16783770E-05,
                      -4.51392516E-08,  1.54224761E-11,  4.91540746E+03,
                       3.62430844E+00]),
                NASA([979.36, 5000.00],
                     [ 3.55660610E+00,  1.10627464E-02, -4.17019079E-06,
                       7.85586770E-10, -5.70060829E-14,  4.32046489E+03,
                       2.17719479E+00])))

species(name=u'C4H8-1(3)',
        atoms='H:8 C:4',
        thermo=(NASA([100.00, 1007.28],
                     [ 2.58772906E+00,  2.32777969E-02,  1.93412349E-05,
                      -3.55496333E-08,  1.36906009E-11, -1.91872926E+03,
                       1.45750618E+01]),
                NASA([1007.28, 5000.00],
                     [ 7.20517168E+00,  2.36361568E-02, -9.03150028E-06,
                       1.65392666E-09, -1.16019260E-13, -3.79733937E+03,
                      -1.24426257E+01])))

species(name=u'C4H8-2(4)',
        atoms='H:8 C:4',
        thermo=(NASA([100.00, 1157.79],
                     [ 2.51998327E+00,  2.76812799E-02,  9.43783469E-07,
                      -1.25009101E-08,  4.67144666E-12, -3.34374767E+03,
                       1.30195623E+01]),
                NASA([1157.79, 5000.00],
                     [ 6.04225708E+00,  2.60072350E-02, -1.04843374E-05,
                       1.90880922E-09, -1.30600505E-13, -4.86276511E+03,
                      -7.52715109E+00])))

species(name=u'C4H6(7)',
        atoms='H:6 C:4',
        thermo=(NASA([100.00, 946.05],
                     [ 2.80599310E+00,  1.02584471E-02,  6.17260255E-05,
                      -9.01642687E-08,  3.59116961E-11,  1.16584972E+04,
                       1.20621434E+01]),
                NASA([946.05, 5000.00],
                     [ 1.24693720E+01,  1.00553901E-02, -2.41206872E-06,
                       4.57077303E-10, -3.93160571E-14,  8.01077795E+03,
                      -4.36374720E+01])))

species(name=u'C6H8(9)',
        atoms='H:8 C:6',
        thermo=(NASA([100.00, 941.22],
                     [ 1.38427980E+00,  4.14411503E-02,  1.94287417E-05,
                      -6.16688700E-08,  2.86503633E-11,  1.76317461E+04,
                       1.93257509E+01]),
                NASA([941.22, 5000.00],
                     [ 1.69619680E+01,  1.57221707E-02, -4.10118367E-06,
                       6.95736344E-10, -5.26521484E-14,  1.29061672E+04,
                      -6.44097553E+01])))

species(name=u'C3H6(24)',
        atoms='H:6 C:3',
        thermo=(NASA([100.00, 983.75],
                     [ 3.31912102E+00,  8.17958674E-03,  3.34736123E-05,
                      -4.36193684E-08,  1.58213364E-11,  7.49325328E+02,
                       9.54025058E+00]),
                NASA([983.75, 5000.00],
                     [ 5.36755173E+00,  1.70743019E-02, -6.35107626E-06,
                       1.16619529E-09, -8.27620279E-14, -4.87138326E+02,
                      -4.54467529E+00])))

species(name=u'H2(47)',
        atoms='H:2',
        thermo=(NASA([100.00, 1959.08],
                     [ 3.43536412E+00,  2.12710353E-04, -2.78625043E-07,
                       3.40267167E-10, -7.76031998E-14, -1.03135984E+03,
                      -3.90841732E+00]),
                NASA([1959.08, 5000.00],
                     [ 2.78816583E+00,  5.87640942E-04,  1.59010417E-07,
                      -5.52739026E-11,  4.34310984E-15, -5.96144270E+02,
                       1.12732655E-01])))

species(name=u'C8H12(98)',
        atoms='H:12 C:8',
        thermo=(NASA([100.00, 1002.94],
                     [ 1.69489980E-02,  7.28189377E-02, -2.16585698E-05,
                      -2.40807783E-08,  1.44597041E-11,  1.38562447E+04,
                       3.07679077E+01]),
                NASA([1002.94, 5000.00],
                     [ 1.77276883E+01,  3.45993801E-02, -1.29781828E-05,
                       2.37500136E-09, -1.67643536E-13,  8.67334638E+03,
                      -6.28559377E+01])))

species(name=u'C6H10(171)',
        atoms='H:10 C:6',
        thermo=(NASA([100.00, 1036.89],
                     [ 1.50874221E+00,  4.27939676E-02,  1.00407781E-05,
                      -3.76644958E-08,  1.56320088E-11,  7.74480595E+03,
                       2.33493905E+01]),
                NASA([1036.89, 5000.00],
                     [ 1.16601041E+01,  3.10397815E-02, -1.26024374E-05,
                       2.38495409E-09, -1.70150727E-13,  4.16633351E+03,
                      -3.30972272E+01])))

species(name=u'C8H12(173)',
        atoms='H:12 C:8',
        thermo=(NASA([100.00, 1005.34],
                     [ 1.86706594E-01,  6.87128585E-02, -1.27834364E-05,
                      -3.12867866E-08,  1.65065107E-11,  1.40386710E+04,
                       3.13641644E+01]),
                NASA([1005.34, 5000.00],
                     [ 1.70020327E+01,  3.54850644E-02, -1.34528637E-05,
                       2.47700296E-09, -1.75378433E-13,  8.95581482E+03,
                      -5.83136097E+01])))

species(name=u'C5H8c(230)',
        atoms='H:8 C:5',
        thermo=(NASA([100.00, 1004.86],
                     [ 1.98273955E+00,  3.49998332E-02,  6.98515281E-06,
                      -3.05031334E-08,  1.32246652E-11,  6.96521034E+03,
                       1.60818191E+01]),
                NASA([1004.86, 5000.00],
                     [ 1.01246420E+01,  2.42323877E-02, -9.24886971E-06,
                       1.70115950E-09, -1.20059732E-13,  4.23624320E+03,
                      -2.86745770E+01])))

species(name=u'C7H10(234)',
        atoms='H:10 C:7',
        thermo=(NASA([100.00, 960.58],
                     [ 5.40181259E-01,  6.14551349E-02, -1.12030877E-05,
                      -3.44223146E-08,  1.91302393E-11,  1.31395193E+04,
                       2.36489181E+01]),
                NASA([960.58, 5000.00],
                     [ 1.78943603E+01,  2.43013009E-02, -8.01425042E-06,
                       1.41741320E-09, -1.01048701E-13,  8.18561381E+03,
                      -6.78088657E+01])))

species(name=u'C6H10(245)',
        atoms='H:10 C:6',
        thermo=(NASA([100.00, 1020.63],
                     [ 9.97427413E-01,  5.59777045E-02, -2.05880600E-05,
                      -1.17182304E-08,  8.13452041E-12,  6.30749855E+03,
                       2.38941836E+01]),
                NASA([1020.63, 5000.00],
                     [ 1.33828218E+01,  2.83661253E-02, -1.07663110E-05,
                       1.95749020E-09, -1.36589418E-13,  2.68926840E+03,
                      -4.14511818E+01])))

species(name=u'C5H8g(252)',
        atoms='H:8 C:5',
        thermo=(NASA([100.00, 1049.25],
                     [ 2.01062155E+00,  3.15407187E-02,  2.07789480E-05,
                      -4.44088985E-08,  1.72419112E-11,  7.01383967E+03,
                       1.65768346E+01]),
                NASA([1049.25, 5000.00],
                     [ 1.14809937E+01,  2.45641673E-02, -1.08867259E-05,
                       2.16707025E-09, -1.59145781E-13,  3.42314914E+03,
                      -3.72078866E+01])))

species(name=u'C6H10(269)',
        atoms='H:10 C:6',
        thermo=(NASA([100.00, 1057.19],
                     [ 1.32003537E+00,  4.84544999E-02, -5.79624644E-06,
                      -2.18049081E-08,  1.02541120E-11,  2.75327172E+03,
                       2.13746403E+01]),
                NASA([1057.19, 5000.00],
                     [ 1.18393426E+01,  3.09141412E-02, -1.24938257E-05,
                       2.33617137E-09, -1.64723228E-13, -7.14884612E+02,
                      -3.58433808E+01])))

species(name=u'S(315)',
        atoms='H:14 C:10',
        thermo=(NASA([100.00, 988.70],
                     [-1.28102885E+00,  9.73401935E-02, -3.96908570E-05,
                      -2.28883979E-08,  1.70599250E-11,  2.01333918E+04,
                       3.80613736E+01]),
                NASA([988.70, 5000.00],
                     [ 2.35618068E+01,  3.86218834E-02, -1.40063814E-05,
                       2.54246809E-09, -1.80004061E-13,  1.31784885E+04,
                      -9.18377566E+01])))

species(name=u'C9H14(320)',
        atoms='H:14 C:9',
        thermo=(NASA([100.00, 1063.15],
                     [-8.82236922E-01,  9.34312223E-02, -5.41013563E-05,
                       5.02935019E-09,  4.39043850E-12,  9.36642700E+03,
                       3.45985261E+01]),
                NASA([1063.15, 5000.00],
                     [ 1.91979043E+01,  4.22928962E-02, -1.63922866E-05,
                       2.98082451E-09, -2.06555285E-13,  3.71720416E+03,
                      -6.99943779E+01])))

species(name=u'C9H14(321)',
        atoms='H:14 C:9',
        thermo=(NASA([100.00, 1061.03],
                     [-7.05964047E-01,  8.92477822E-02, -4.49542296E-05,
                      -2.52955648E-09,  6.58718881E-12,  9.54857271E+03,
                       3.51714585E+01]),
                NASA([1061.03, 5000.00],
                     [ 1.84449198E+01,  4.32245785E-02, -1.68932978E-05,
                       3.08901170E-09, -2.14801096E-13,  4.01132324E+03,
                      -6.52978597E+01])))

species(name=u'S(324)',
        atoms='H:18 C:12',
        thermo=(NASA([100.00, 1095.01],
                     [-2.74660311E+00,  1.29765084E-01, -8.38469326E-05,
                       1.76910140E-08,  2.07998997E-12,  1.63622171E+04,
                       4.84763299E+01]),
                NASA([1095.01, 5000.00],
                     [ 2.54000781E+01,  5.57453621E-02, -2.19004326E-05,
                       3.99438837E-09, -2.76438212E-13,  8.47151992E+03,
                      -9.77534119E+01])))

species(name=u'C9H14(340)',
        atoms='H:14 C:9',
        thermo=(NASA([100.00, 1474.55],
                     [-3.96703397E-01,  9.26979335E-02, -6.51821885E-05,
                       2.40631754E-08, -3.70865842E-12,  1.17488721E+04,
                       3.39094202E+01]),
                NASA([1474.55, 5000.00],
                     [ 1.59633830E+01,  4.83178968E-02, -2.00360104E-05,
                       3.65182184E-09, -2.48038618E-13,  6.92413657E+03,
                      -5.13719663E+01])))

species(name=u'CH4(349)',
        atoms='H:4 C:1',
        thermo=(NASA([100.00, 1084.12],
                     [ 4.20541524E+00, -5.35557362E-03,  2.51123265E-05,
                      -2.13762843E-08,  5.97523937E-12, -1.01619433E+04,
                      -9.21279283E-01]),
                NASA([1084.12, 5000.00],
                     [ 9.08265721E-01,  1.14540858E-02, -4.57173828E-06,
                       8.29191671E-10, -5.66314895E-14, -9.71997444E+03,
                       1.39930944E+01])))

species(name=u'C7H12(351)',
        atoms='H:12 C:7',
        thermo=(NASA([100.00, 999.68],
                     [ 4.29571406E-01,  6.49379719E-02, -1.42316263E-05,
                      -2.68110632E-08,  1.46756236E-11,  1.33179837E+03,
                       2.65680971E+01]),
                NASA([999.68, 5000.00],
                     [ 1.58208064E+01,  3.35710199E-02, -1.25070130E-05,
                       2.27563528E-09, -1.59971208E-13, -3.25538740E+03,
                      -5.52328098E+01])))

species(name=u'C5H10(356)',
        atoms='H:10 C:5',
        thermo=(NASA([100.00, 1883.68],
                     [ 2.29195787E+00,  4.21076449E-02, -1.49304794E-05,
                      -1.22102583E-10,  5.99441346E-13, -4.98138150E+03,
                       1.67887076E+01]),
                NASA([1883.68, 5000.00],
                     [ 1.47438472E+01,  2.72460315E-02, -1.23172689E-05,
                       2.21660273E-09, -1.44084857E-13, -1.17269008E+04,
                      -5.66226025E+01])))

species(name=u'C4H8(357)',
        atoms='H:8 C:4',
        thermo=(NASA([100.00, 1061.33],
                     [ 2.52504770E+00,  2.64752782E-02,  7.08359238E-06,
                      -2.07731462E-08,  8.00430055E-12, -4.02607130E+03,
                       1.28857274E+01]),
                NASA([1061.33, 5000.00],
                     [ 6.48672669E+00,  2.49943921E-02, -9.83283171E-06,
                       1.79343299E-09, -1.24008235E-13, -5.62452310E+03,
                      -1.00316397E+01])))

species(name=u'C2H6(360)',
        atoms='H:6 C:2',
        thermo=(NASA([100.00, 1012.42],
                     [ 3.72239291E+00,  1.65083841E-03,  3.44175530E-05,
                      -3.76858229E-08,  1.24450657E-11, -1.15575901E+04,
                       4.68247999E+00]),
                NASA([1012.42, 5000.00],
                     [ 2.82848257E+00,  1.73040568E-02, -6.73334245E-06,
                       1.23742024E-09, -8.65676410E-14, -1.19978080E+04,
                       5.93811707E+00])))

species(name=u'C8H12(522)',
        atoms='H:12 C:8',
        thermo=(NASA([100.00, 1016.52],
                     [-1.10429280E-01,  7.70814645E-02, -3.47833140E-05,
                      -1.00302869E-08,  9.42640217E-12,  1.21750142E+04,
                       2.97645889E+01]),
                NASA([1016.52, 5000.00],
                     [ 1.75623558E+01,  3.50022757E-02, -1.32158186E-05,
                       2.40320183E-09, -1.68059077E-13,  7.16317806E+03,
                      -6.27651255E+01])))

species(name=u'S(1328)',
        atoms='H:16 C:10',
        thermo=(NASA([100.00, 1423.43],
                     [-9.64998750E-01,  1.06621285E-01, -7.62914575E-05,
                       2.89181323E-08, -4.60674413E-12,  8.90797740E+03,
                       3.81904336E+01]),
                NASA([1423.43, 5000.00],
                     [ 1.67121827E+01,  5.69463096E-02, -2.39442437E-05,
                       4.40115288E-09, -3.00767956E-13,  3.87554017E+03,
                      -5.33329903E+01])))

species(name=u'S(1457)',
        atoms='H:14 C:9',
        thermo=(NASA([100.00, 985.46],
                     [-8.68482680E-01,  8.94590274E-02, -3.22574627E-05,
                      -2.56364890E-08,  1.72880768E-11,  7.60894960E+03,
                       3.38619035E+01]),
                NASA([985.46, 5000.00],
                     [ 2.16607982E+01,  3.75840180E-02, -1.35299265E-05,
                       2.44188718E-09, -1.72233052E-13,  1.24712880E+03,
                      -8.42479959E+01])))

species(name=u'S(1551)',
        atoms='H:12 C:6',
        thermo=(NASA([100.00, 2065.44],
                     [ 1.68598658E+00,  5.58664307E-02, -2.53057821E-05,
                       3.98016615E-09, -6.94904807E-14, -7.81739466E+03,
                       2.09919882E+01]),
                NASA([2065.44, 5000.00],
                     [ 2.13486140E+01,  2.79136045E-02, -1.23596487E-05,
                       2.17527434E-09, -1.38347372E-13, -1.80997789E+04,
                      -9.33598720E+01])))

species(name=u'S(1552)',
        atoms='H:10 C:5',
        thermo=(NASA([100.00, 1065.88],
                     [ 1.83973645E+00,  3.88165649E-02,  3.95415802E-06,
                      -2.48620336E-08,  1.01608534E-11, -6.45875726E+03,
                       1.88194915E+01]),
                NASA([1065.88, 5000.00],
                     [ 8.87931728E+00,  3.15047857E-02, -1.26438740E-05,
                       2.33666558E-09, -1.63001335E-13, -9.04475166E+03,
                      -2.06827600E+01])))

species(name=u'C3H8(1556)',
        atoms='H:8 C:3',
        thermo=(NASA([100.00, 989.99],
                     [ 3.06336167E+00,  1.29214561E-02,  3.47032808E-05,
                      -4.70946154E-08,  1.71384141E-11, -1.43905789E+04,
                       1.07835592E+01]),
                NASA([989.99, 5000.00],
                     [ 5.60440043E+00,  2.19528785E-02, -8.22080610E-06,
                       1.50103993E-09, -1.05635358E-13, -1.58394038E+04,
                      -6.22623300E+00])))

species(name=u'S(1590)',
        atoms='H:14 C:8',
        thermo=(NASA([100.00, 1506.76],
                     [ 5.49675181E-02,  8.43985440E-02, -5.64633487E-05,
                       1.98661295E-08, -2.94599969E-12, -7.77393079E+02,
                       2.95663347E+01]),
                NASA([1506.76, 5000.00],
                     [ 1.39949012E+01,  4.73919655E-02, -1.96226018E-05,
                       3.56583689E-09, -2.41458224E-13, -4.97819756E+03,
                      -4.34005510E+01])))

species(name=u'S(1596)',
        atoms='H:10 C:4',
        thermo=(NASA([100.00, 1147.60],
                     [ 2.16918413E+00,  3.43904632E-02, -1.61564236E-06,
                      -1.30726562E-08,  5.17350451E-12, -1.72505136E+04,
                       1.46546701E+01]),
                NASA([1147.60, 5000.00],
                     [ 6.78903089E+00,  3.03598162E-02, -1.21262050E-05,
                       2.19945025E-09, -1.50289312E-13, -1.91057969E+04,
                      -1.17329103E+01])))

species(name=u'S(1614)',
        atoms='H:14 C:9',
        thermo=(NASA([100.00, 1061.03],
                     [-7.05964047E-01,  8.92477822E-02, -4.49542296E-05,
                      -2.52955648E-09,  6.58718881E-12,  9.54857271E+03,
                       3.51714585E+01]),
                NASA([1061.03, 5000.00],
                     [ 1.84449198E+01,  4.32245785E-02, -1.68932978E-05,
                       3.08901170E-09, -2.14801096E-13,  4.01132324E+03,
                      -6.52978597E+01])))

species(name=u'S(1631)',
        atoms='H:16 C:9',
        thermo=(NASA([100.00, 1438.82],
                     [-5.13601389E-01,  9.83208948E-02, -6.75577873E-05,
                       2.46964081E-08, -3.83387574E-12, -3.61824880E+03,
                       3.38487440E+01]),
                NASA([1438.82, 5000.00],
                     [ 1.46514373E+01,  5.61616506E-02, -2.36063201E-05,
                       4.33201741E-09, -2.95526202E-13, -7.98224350E+03,
                      -4.48313440E+01])))

species(name=u'S(1647)',
        atoms='H:14 C:8',
        thermo=(NASA([100.00, 1063.99],
                     [-4.68997475E-01,  8.55445444E-02, -4.66625192E-05,
                       2.29665109E-09,  4.60116787E-12, -3.15804727E+03,
                       3.03964058E+01]),
                NASA([1063.99, 5000.00],
                     [ 1.72795147E+01,  4.12831648E-02, -1.59314792E-05,
                       2.88384127E-09, -1.99076586E-13, -8.20638043E+03,
                      -6.23058631E+01])))

species(name=u'S(1648)',
        atoms='H:14 C:8',
        thermo=(NASA([100.00, 1061.60],
                     [-2.92612951E-01,  8.13598275E-02, -3.75111418E-05,
                      -5.26741361E-09,  6.79994848E-12, -2.97590642E+03,
                       3.09689353E+01]),
                NASA([1061.60, 5000.00],
                     [ 1.65258066E+01,  4.22160356E-02, -1.64331588E-05,
                       2.99218348E-09, -2.07335076E-13, -7.91194306E+03,
                      -5.76052440E+01])))

species(name=u'S(1651)',
        atoms='H:18 C:11',
        thermo=(NASA([100.00, 1098.23],
                     [-2.33422004E+00,  1.21887322E-01, -7.64335550E-05,
                       1.49829050E-08,  2.28389276E-12,  3.83778150E+03,
                       4.49705057E+01]),
                NASA([1098.23, 5000.00],
                     [ 2.34928702E+01,  5.47178154E-02, -2.14298317E-05,
                       3.89517297E-09, -2.68779359E-13, -3.45717709E+03,
                      -8.94354947E+01])))

species(name=u'S(1653)',
        atoms='H:12 C:6',
        thermo=(NASA([100.00, 3144.72],
                     [ 1.62486600E+00,  5.81706891E-02, -2.94074668E-05,
                       6.41453677E-09, -5.27511383E-13, -9.95070725E+03,
                       2.05730324E+01]),
                NASA([3144.72, 5000.00],
                     [ 2.63049846E+01,  2.09689465E-02, -8.89163385E-06,
                       1.47783715E-09, -8.83519412E-14, -2.26006402E+04,
                      -1.22203751E+02])))

species(name=u'S(1681)',
        atoms='H:18 C:10',
        thermo=(NASA([100.00, 1101.98],
                     [-1.92193078E+00,  1.14010467E-01, -6.90224168E-05,
                       1.22763700E-08,  2.48768194E-12, -8.68664979E+03,
                       4.00787368E+01]),
                NASA([1101.98, 5000.00],
                     [ 2.15873768E+01,  5.36875713E-02, -2.09577621E-05,
                       3.79562531E-09, -2.61093846E-13, -1.53866703E+04,
                      -8.25136692E+01])))

species(name=u'S(1700)',
        atoms='H:12 C:6',
        thermo=(NASA([100.00, 1018.92],
                     [ 1.21827324E+00,  4.88303598E-02,  8.49335826E-06,
                      -3.91899735E-08,  1.67107196E-11, -8.55522126E+03,
                       2.43074946E+01]),
                NASA([1018.92, 5000.00],
                     [ 1.16698119E+01,  3.59250755E-02, -1.39120664E-05,
                       2.55991991E-09, -1.79822160E-13, -1.21450086E+04,
                      -3.34751762E+01])))

species(name=u'S(1735)',